
*** ChampSim Multicore Out-of-Order Simulator ***

Warmup Instructions: 0
Simulation Instructions: 1000000000
Number of CPUs: 8
LLC sets: 32768
LLC ways: 16
Off-chip DRAM Size: 8192 MB Channels: 2 Width: 64-bit Data Rate: 1600 MT/s

CPU 0 runs /data/behnam/ChampSim/tracer/behnam_trace/streaming_phase1_core0.trace.gz
CPU 1 runs /data/behnam/ChampSim/tracer/behnam_trace/streaming_phase1_core1.trace.gz
CPU 2 runs /data/behnam/ChampSim/tracer/behnam_trace/streaming_phase1_core2.trace.gz
CPU 3 runs /data/behnam/ChampSim/tracer/behnam_trace/streaming_phase1_core3.trace.gz
CPU 4 runs /data/behnam/ChampSim/tracer/behnam_trace/cloud9_phase1_core0.trace.gz
CPU 5 runs /data/behnam/ChampSim/tracer/behnam_trace/cloud9_phase1_core1.trace.gz
CPU 6 runs /data/behnam/ChampSim/tracer/behnam_trace/cloud9_phase1_core2.trace.gz
CPU 7 runs /data/behnam/ChampSim/tracer/behnam_trace/cloud9_phase1_core3.trace.gz
CPU 0 Bimodal branch predictor
CPU 1 Bimodal branch predictor
CPU 2 Bimodal branch predictor
CPU 3 Bimodal branch predictor
CPU 4 Bimodal branch predictor
CPU 5 Bimodal branch predictor
CPU 6 Bimodal branch predictor
CPU 7 Bimodal branch predictor
Initialize pLRU state

Warmup complete CPU 0 instructions: 6 cycles: 23 (Simulation time: 0 hr 0 min 0 sec) 
Warmup complete CPU 1 instructions: 1 cycles: 23 (Simulation time: 0 hr 0 min 0 sec) 
Warmup complete CPU 2 instructions: 3 cycles: 23 (Simulation time: 0 hr 0 min 0 sec) 
Warmup complete CPU 3 instructions: 4 cycles: 23 (Simulation time: 0 hr 0 min 0 sec) 
Warmup complete CPU 4 instructions: 2 cycles: 23 (Simulation time: 0 hr 0 min 0 sec) 
Warmup complete CPU 5 instructions: 2 cycles: 23 (Simulation time: 0 hr 0 min 0 sec) 
Warmup complete CPU 6 instructions: 2 cycles: 22 (Simulation time: 0 hr 0 min 0 sec) 
Warmup complete CPU 7 instructions: 2 cycles: 22 (Simulation time: 0 hr 0 min 0 sec) 

Heartbeat CPU 2 instructions: 10000001 cycles: 41057105 heartbeat IPC: 0.243563 cumulative IPC: 0.243563 (Simulation time: 0 hr 3 min 21 sec) 
Heartbeat CPU 3 instructions: 10000000 cycles: 51468960 heartbeat IPC: 0.194292 cumulative IPC: 0.194292 (Simulation time: 0 hr 3 min 53 sec) 
Heartbeat CPU 0 instructions: 10000003 cycles: 52671779 heartbeat IPC: 0.189855 cumulative IPC: 0.189855 (Simulation time: 0 hr 3 min 56 sec) 
Heartbeat CPU 1 instructions: 10000001 cycles: 54082161 heartbeat IPC: 0.184904 cumulative IPC: 0.184904 (Simulation time: 0 hr 4 min 1 sec) 
Heartbeat CPU 2 instructions: 20000000 cycles: 70183433 heartbeat IPC: 0.343332 cumulative IPC: 0.284968 (Simulation time: 0 hr 4 min 52 sec) 
Heartbeat CPU 4 instructions: 10000003 cycles: 73711743 heartbeat IPC: 0.135664 cumulative IPC: 0.135664 (Simulation time: 0 hr 5 min 3 sec) 
Heartbeat CPU 6 instructions: 10000000 cycles: 80193209 heartbeat IPC: 0.124699 cumulative IPC: 0.124699 (Simulation time: 0 hr 5 min 24 sec) 
Heartbeat CPU 5 instructions: 10000002 cycles: 80315763 heartbeat IPC: 0.124509 cumulative IPC: 0.124509 (Simulation time: 0 hr 5 min 24 sec) 
Heartbeat CPU 7 instructions: 10000000 cycles: 97054233 heartbeat IPC: 0.103035 cumulative IPC: 0.103035 (Simulation time: 0 hr 6 min 18 sec) 
Heartbeat CPU 2 instructions: 30000000 cycles: 97222728 heartbeat IPC: 0.369832 cumulative IPC: 0.30857 (Simulation time: 0 hr 6 min 18 sec) 
Heartbeat CPU 3 instructions: 20000000 cycles: 105266890 heartbeat IPC: 0.185881 cumulative IPC: 0.189993 (Simulation time: 0 hr 6 min 46 sec) 
Heartbeat CPU 0 instructions: 20000000 cycles: 106749372 heartbeat IPC: 0.184919 cumulative IPC: 0.187355 (Simulation time: 0 hr 6 min 51 sec) 
Heartbeat CPU 1 instructions: 20000000 cycles: 108014360 heartbeat IPC: 0.185418 cumulative IPC: 0.185161 (Simulation time: 0 hr 6 min 55 sec) 
Heartbeat CPU 2 instructions: 40000000 cycles: 136838179 heartbeat IPC: 0.252427 cumulative IPC: 0.292316 (Simulation time: 0 hr 8 min 18 sec) 
Heartbeat CPU 3 instructions: 30000001 cycles: 158837860 heartbeat IPC: 0.186668 cumulative IPC: 0.188872 (Simulation time: 0 hr 9 min 19 sec) 
Heartbeat CPU 4 instructions: 20000000 cycles: 158908849 heartbeat IPC: 0.117375 cumulative IPC: 0.125858 (Simulation time: 0 hr 9 min 19 sec) 
Heartbeat CPU 5 instructions: 20000000 cycles: 160438147 heartbeat IPC: 0.124809 cumulative IPC: 0.124659 (Simulation time: 0 hr 9 min 24 sec) 
Heartbeat CPU 6 instructions: 20000000 cycles: 160453778 heartbeat IPC: 0.124594 cumulative IPC: 0.124646 (Simulation time: 0 hr 9 min 24 sec) 
Heartbeat CPU 0 instructions: 30000002 cycles: 160978057 heartbeat IPC: 0.184404 cumulative IPC: 0.186361 (Simulation time: 0 hr 9 min 26 sec) 
Heartbeat CPU 1 instructions: 30000003 cycles: 161678800 heartbeat IPC: 0.186343 cumulative IPC: 0.185553 (Simulation time: 0 hr 9 min 28 sec) 
Heartbeat CPU 7 instructions: 20000000 cycles: 195405674 heartbeat IPC: 0.101676 cumulative IPC: 0.102351 (Simulation time: 0 hr 11 min 2 sec) 
Heartbeat CPU 2 instructions: 50000003 cycles: 200550862 heartbeat IPC: 0.156955 cumulative IPC: 0.249313 (Simulation time: 0 hr 11 min 16 sec) 
Heartbeat CPU 3 instructions: 40000000 cycles: 212473778 heartbeat IPC: 0.186442 cumulative IPC: 0.188259 (Simulation time: 0 hr 11 min 50 sec) 
Heartbeat CPU 0 instructions: 40000000 cycles: 214595843 heartbeat IPC: 0.186505 cumulative IPC: 0.186397 (Simulation time: 0 hr 11 min 56 sec) 
Heartbeat CPU 1 instructions: 40000000 cycles: 215511987 heartbeat IPC: 0.185759 cumulative IPC: 0.185605 (Simulation time: 0 hr 11 min 58 sec) 
Heartbeat CPU 5 instructions: 30000000 cycles: 240491362 heartbeat IPC: 0.124917 cumulative IPC: 0.124745 (Simulation time: 0 hr 13 min 9 sec) 
Heartbeat CPU 6 instructions: 30000000 cycles: 240533785 heartbeat IPC: 0.124875 cumulative IPC: 0.124723 (Simulation time: 0 hr 13 min 9 sec) 
Heartbeat CPU 4 instructions: 30000002 cycles: 251880961 heartbeat IPC: 0.107559 cumulative IPC: 0.119104 (Simulation time: 0 hr 13 min 42 sec) 
Heartbeat CPU 2 instructions: 60000000 cycles: 256670309 heartbeat IPC: 0.178191 cumulative IPC: 0.233763 (Simulation time: 0 hr 13 min 56 sec) 
Heartbeat CPU 3 instructions: 50000000 cycles: 266519083 heartbeat IPC: 0.18503 cumulative IPC: 0.187604 (Simulation time: 0 hr 14 min 24 sec) 
Heartbeat CPU 0 instructions: 50000002 cycles: 268369328 heartbeat IPC: 0.185965 cumulative IPC: 0.18631 (Simulation time: 0 hr 14 min 30 sec) 
Heartbeat CPU 1 instructions: 50000002 cycles: 269812082 heartbeat IPC: 0.184162 cumulative IPC: 0.185314 (Simulation time: 0 hr 14 min 35 sec) 
Heartbeat CPU 2 instructions: 70000001 cycles: 285359922 heartbeat IPC: 0.348558 cumulative IPC: 0.245304 (Simulation time: 0 hr 15 min 26 sec) 
Heartbeat CPU 7 instructions: 30000002 cycles: 296548987 heartbeat IPC: 0.0988696 cumulative IPC: 0.101164 (Simulation time: 0 hr 16 min 2 sec) 
Heartbeat CPU 5 instructions: 40000000 cycles: 319119646 heartbeat IPC: 0.127181 cumulative IPC: 0.125345 (Simulation time: 0 hr 17 min 7 sec) 
Heartbeat CPU 6 instructions: 40000000 cycles: 320768431 heartbeat IPC: 0.124634 cumulative IPC: 0.124701 (Simulation time: 0 hr 17 min 11 sec) 
Heartbeat CPU 3 instructions: 60000000 cycles: 320801056 heartbeat IPC: 0.184223 cumulative IPC: 0.187032 (Simulation time: 0 hr 17 min 11 sec) 
Heartbeat CPU 0 instructions: 60000000 cycles: 322638020 heartbeat IPC: 0.184268 cumulative IPC: 0.185967 (Simulation time: 0 hr 17 min 16 sec) 
Heartbeat CPU 1 instructions: 60000000 cycles: 324384018 heartbeat IPC: 0.183244 cumulative IPC: 0.184966 (Simulation time: 0 hr 17 min 21 sec) 
Heartbeat CPU 2 instructions: 80000000 cycles: 331339586 heartbeat IPC: 0.217487 cumulative IPC: 0.241444 (Simulation time: 0 hr 17 min 41 sec) 
Heartbeat CPU 4 instructions: 40000000 cycles: 335699417 heartbeat IPC: 0.119305 cumulative IPC: 0.119154 (Simulation time: 0 hr 17 min 55 sec) 
Heartbeat CPU 0 instructions: 70000001 cycles: 353388699 heartbeat IPC: 0.325196 cumulative IPC: 0.198082 (Simulation time: 0 hr 18 min 50 sec) 
Heartbeat CPU 1 instructions: 70000000 cycles: 362939394 heartbeat IPC: 0.259367 cumulative IPC: 0.19287 (Simulation time: 0 hr 19 min 22 sec) 
Heartbeat CPU 3 instructions: 70000000 cycles: 374904898 heartbeat IPC: 0.18483 cumulative IPC: 0.186714 (Simulation time: 0 hr 19 min 57 sec) 
Heartbeat CPU 2 instructions: 90000001 cycles: 391522735 heartbeat IPC: 0.166159 cumulative IPC: 0.229872 (Simulation time: 0 hr 20 min 43 sec) 
Heartbeat CPU 7 instructions: 40000000 cycles: 396211402 heartbeat IPC: 0.100339 cumulative IPC: 0.100956 (Simulation time: 0 hr 20 min 56 sec) 
Heartbeat CPU 5 instructions: 50000003 cycles: 397838589 heartbeat IPC: 0.127034 cumulative IPC: 0.125679 (Simulation time: 0 hr 21 min 1 sec) 
Heartbeat CPU 6 instructions: 50000003 cycles: 402793475 heartbeat IPC: 0.121914 cumulative IPC: 0.124133 (Simulation time: 0 hr 21 min 15 sec) 
Heartbeat CPU 0 instructions: 80000000 cycles: 404345461 heartbeat IPC: 0.196245 cumulative IPC: 0.197851 (Simulation time: 0 hr 21 min 19 sec) 
Heartbeat CPU 1 instructions: 80000000 cycles: 416808608 heartbeat IPC: 0.185635 cumulative IPC: 0.191935 (Simulation time: 0 hr 21 min 54 sec) 
Heartbeat CPU 4 instructions: 50000003 cycles: 428116022 heartbeat IPC: 0.108206 cumulative IPC: 0.116791 (Simulation time: 0 hr 22 min 25 sec) 
Heartbeat CPU 3 instructions: 80000000 cycles: 429368821 heartbeat IPC: 0.183608 cumulative IPC: 0.18632 (Simulation time: 0 hr 22 min 29 sec) 
*** Reached end of trace for Core: 2 Repeating trace: /data/behnam/ChampSim/tracer/behnam_trace/streaming_phase1_core2.trace.gz
Heartbeat CPU 2 instructions: 100000000 cycles: 454658160 heartbeat IPC: 0.15839 cumulative IPC: 0.219945 (Simulation time: 0 hr 23 min 39 sec) 
Heartbeat CPU 0 instructions: 90000000 cycles: 458708653 heartbeat IPC: 0.183948 cumulative IPC: 0.196203 (Simulation time: 0 hr 23 min 52 sec) 
Heartbeat CPU 1 instructions: 90000000 cycles: 471236994 heartbeat IPC: 0.183728 cumulative IPC: 0.190987 (Simulation time: 0 hr 24 min 32 sec) 
Heartbeat CPU 5 instructions: 60000000 cycles: 478756515 heartbeat IPC: 0.123582 cumulative IPC: 0.125325 (Simulation time: 0 hr 24 min 53 sec) 
Heartbeat CPU 3 instructions: 90000000 cycles: 483468582 heartbeat IPC: 0.184844 cumulative IPC: 0.186155 (Simulation time: 0 hr 25 min 6 sec) 
Heartbeat CPU 6 instructions: 60000000 cycles: 484775028 heartbeat IPC: 0.121979 cumulative IPC: 0.123769 (Simulation time: 0 hr 25 min 10 sec) 
Heartbeat CPU 7 instructions: 50000000 cycles: 496221894 heartbeat IPC: 0.0999895 cumulative IPC: 0.100761 (Simulation time: 0 hr 25 min 42 sec) 
Heartbeat CPU 2 instructions: 110000000 cycles: 496251550 heartbeat IPC: 0.240423 cumulative IPC: 0.221662 (Simulation time: 0 hr 25 min 42 sec) 
Heartbeat CPU 4 instructions: 60000000 cycles: 506188778 heartbeat IPC: 0.128086 cumulative IPC: 0.118533 (Simulation time: 0 hr 26 min 12 sec) 
*** Reached end of trace for Core: 0 Repeating trace: /data/behnam/ChampSim/tracer/behnam_trace/streaming_phase1_core0.trace.gz
Heartbeat CPU 0 instructions: 100000000 cycles: 513513903 heartbeat IPC: 0.182464 cumulative IPC: 0.194737 (Simulation time: 0 hr 26 min 35 sec) 
*** Reached end of trace for Core: 1 Repeating trace: /data/behnam/ChampSim/tracer/behnam_trace/streaming_phase1_core1.trace.gz
Heartbeat CPU 1 instructions: 100000000 cycles: 525039148 heartbeat IPC: 0.185866 cumulative IPC: 0.190462 (Simulation time: 0 hr 27 min 12 sec) 
Heartbeat CPU 2 instructions: 120000000 cycles: 526409653 heartbeat IPC: 0.331586 cumulative IPC: 0.227959 (Simulation time: 0 hr 27 min 16 sec) 
*** Reached end of trace for Core: 3 Repeating trace: /data/behnam/ChampSim/tracer/behnam_trace/streaming_phase1_core3.trace.gz
Heartbeat CPU 3 instructions: 100000000 cycles: 538067967 heartbeat IPC: 0.183152 cumulative IPC: 0.18585 (Simulation time: 0 hr 27 min 53 sec) 
Heartbeat CPU 2 instructions: 130000003 cycles: 554465614 heartbeat IPC: 0.356431 cumulative IPC: 0.23446 (Simulation time: 0 hr 28 min 45 sec) 
Heartbeat CPU 5 instructions: 70000003 cycles: 560702340 heartbeat IPC: 0.122032 cumulative IPC: 0.124843 (Simulation time: 0 hr 29 min 5 sec) 
Heartbeat CPU 0 instructions: 110000001 cycles: 565822436 heartbeat IPC: 0.191173 cumulative IPC: 0.194407 (Simulation time: 0 hr 29 min 22 sec) 
Heartbeat CPU 6 instructions: 70000000 cycles: 566901015 heartbeat IPC: 0.121764 cumulative IPC: 0.123478 (Simulation time: 0 hr 29 min 26 sec) 
Heartbeat CPU 1 instructions: 110000001 cycles: 578747110 heartbeat IPC: 0.186192 cumulative IPC: 0.190066 (Simulation time: 0 hr 30 min 1 sec) 
Heartbeat CPU 4 instructions: 70000001 cycles: 578849336 heartbeat IPC: 0.137626 cumulative IPC: 0.12093 (Simulation time: 0 hr 30 min 2 sec) 
Heartbeat CPU 3 instructions: 110000001 cycles: 589200449 heartbeat IPC: 0.19557 cumulative IPC: 0.186694 (Simulation time: 0 hr 30 min 31 sec) 
Heartbeat CPU 2 instructions: 140000000 cycles: 594637030 heartbeat IPC: 0.248933 cumulative IPC: 0.235438 (Simulation time: 0 hr 30 min 46 sec) 
Heartbeat CPU 7 instructions: 60000000 cycles: 597732869 heartbeat IPC: 0.0985115 cumulative IPC: 0.100379 (Simulation time: 0 hr 30 min 55 sec) 
Heartbeat CPU 0 instructions: 120000000 cycles: 620017434 heartbeat IPC: 0.184519 cumulative IPC: 0.193543 (Simulation time: 0 hr 31 min 58 sec) 
Heartbeat CPU 1 instructions: 120000000 cycles: 632799327 heartbeat IPC: 0.185006 cumulative IPC: 0.189634 (Simulation time: 0 hr 32 min 35 sec) 
Heartbeat CPU 5 instructions: 80000000 cycles: 642457544 heartbeat IPC: 0.122316 cumulative IPC: 0.124522 (Simulation time: 0 hr 33 min 2 sec) 
Heartbeat CPU 3 instructions: 120000000 cycles: 643110538 heartbeat IPC: 0.185494 cumulative IPC: 0.186593 (Simulation time: 0 hr 33 min 3 sec) 
Heartbeat CPU 6 instructions: 80000000 cycles: 648855870 heartbeat IPC: 0.122018 cumulative IPC: 0.123294 (Simulation time: 0 hr 33 min 19 sec) 
Heartbeat CPU 4 instructions: 80000000 cycles: 651515273 heartbeat IPC: 0.137616 cumulative IPC: 0.122791 (Simulation time: 0 hr 33 min 26 sec) 
Heartbeat CPU 2 instructions: 150000000 cycles: 658357295 heartbeat IPC: 0.156936 cumulative IPC: 0.22784 (Simulation time: 0 hr 33 min 45 sec) 
Heartbeat CPU 0 instructions: 130000000 cycles: 674254071 heartbeat IPC: 0.184377 cumulative IPC: 0.192806 (Simulation time: 0 hr 34 min 29 sec) 
Heartbeat CPU 1 instructions: 130000001 cycles: 686456886 heartbeat IPC: 0.186367 cumulative IPC: 0.189378 (Simulation time: 0 hr 35 min 2 sec) 
Heartbeat CPU 3 instructions: 130000000 cycles: 696627329 heartbeat IPC: 0.186857 cumulative IPC: 0.186613 (Simulation time: 0 hr 35 min 30 sec) 
Heartbeat CPU 7 instructions: 70000001 cycles: 696881497 heartbeat IPC: 0.100859 cumulative IPC: 0.100447 (Simulation time: 0 hr 35 min 30 sec) 
Heartbeat CPU 2 instructions: 160000000 cycles: 714343183 heartbeat IPC: 0.178616 cumulative IPC: 0.223982 (Simulation time: 0 hr 36 min 20 sec) 
Heartbeat CPU 5 instructions: 90000000 cycles: 723242020 heartbeat IPC: 0.123786 cumulative IPC: 0.12444 (Simulation time: 0 hr 36 min 44 sec) 
Heartbeat CPU 0 instructions: 140000000 cycles: 727936792 heartbeat IPC: 0.18628 cumulative IPC: 0.192324 (Simulation time: 0 hr 36 min 59 sec) 
Heartbeat CPU 6 instructions: 90000000 cycles: 730751782 heartbeat IPC: 0.122106 cumulative IPC: 0.123161 (Simulation time: 0 hr 37 min 8 sec) 
Heartbeat CPU 1 instructions: 140000000 cycles: 740301040 heartbeat IPC: 0.185721 cumulative IPC: 0.189112 (Simulation time: 0 hr 37 min 40 sec) 
Heartbeat CPU 2 instructions: 170000002 cycles: 742552672 heartbeat IPC: 0.354491 cumulative IPC: 0.22894 (Simulation time: 0 hr 37 min 47 sec) 
Heartbeat CPU 4 instructions: 90000002 cycles: 748594496 heartbeat IPC: 0.103009 cumulative IPC: 0.120225 (Simulation time: 0 hr 38 min 6 sec) 
Heartbeat CPU 3 instructions: 140000000 cycles: 750280553 heartbeat IPC: 0.186382 cumulative IPC: 0.186597 (Simulation time: 0 hr 38 min 11 sec) 
Heartbeat CPU 0 instructions: 150000002 cycles: 781671287 heartbeat IPC: 0.1861 cumulative IPC: 0.191897 (Simulation time: 0 hr 39 min 39 sec) 
Heartbeat CPU 2 instructions: 180000000 cycles: 788773641 heartbeat IPC: 0.216352 cumulative IPC: 0.228202 (Simulation time: 0 hr 39 min 59 sec) 
Heartbeat CPU 1 instructions: 150000003 cycles: 794661862 heartbeat IPC: 0.183956 cumulative IPC: 0.18876 (Simulation time: 0 hr 40 min 15 sec) 
Heartbeat CPU 7 instructions: 80000000 cycles: 796678437 heartbeat IPC: 0.100203 cumulative IPC: 0.100417 (Simulation time: 0 hr 40 min 20 sec) 
*** Reached end of trace for Core: 5 Repeating trace: /data/behnam/ChampSim/tracer/behnam_trace/cloud9_phase1_core1.trace.gz
Heartbeat CPU 5 instructions: 100000000 cycles: 804254370 heartbeat IPC: 0.123438 cumulative IPC: 0.124339 (Simulation time: 0 hr 40 min 41 sec) 
Heartbeat CPU 3 instructions: 150000000 cycles: 804409185 heartbeat IPC: 0.184745 cumulative IPC: 0.186472 (Simulation time: 0 hr 40 min 42 sec) 
*** Reached end of trace for Core: 6 Repeating trace: /data/behnam/ChampSim/tracer/behnam_trace/cloud9_phase1_core2.trace.gz
Heartbeat CPU 6 instructions: 100000000 cycles: 813532653 heartbeat IPC: 0.120801 cumulative IPC: 0.122921 (Simulation time: 0 hr 41 min 7 sec) 
Heartbeat CPU 0 instructions: 160000000 cycles: 835907786 heartbeat IPC: 0.184378 cumulative IPC: 0.191409 (Simulation time: 0 hr 42 min 9 sec) 
*** Reached end of trace for Core: 4 Repeating trace: /data/behnam/ChampSim/tracer/behnam_trace/cloud9_phase1_core0.trace.gz
Heartbeat CPU 4 instructions: 100000000 cycles: 847158410 heartbeat IPC: 0.101457 cumulative IPC: 0.118042 (Simulation time: 0 hr 42 min 40 sec) 
Heartbeat CPU 2 instructions: 190000000 cycles: 848896309 heartbeat IPC: 0.166327 cumulative IPC: 0.22382 (Simulation time: 0 hr 42 min 47 sec) 
Heartbeat CPU 1 instructions: 160000000 cycles: 849154977 heartbeat IPC: 0.183509 cumulative IPC: 0.188423 (Simulation time: 0 hr 42 min 48 sec) 
Heartbeat CPU 3 instructions: 160000000 cycles: 858677110 heartbeat IPC: 0.184271 cumulative IPC: 0.186333 (Simulation time: 0 hr 43 min 22 sec) 
Heartbeat CPU 0 instructions: 170000000 cycles: 866692143 heartbeat IPC: 0.32484 cumulative IPC: 0.196148 (Simulation time: 0 hr 43 min 45 sec) 
Heartbeat CPU 5 instructions: 110000001 cycles: 884536288 heartbeat IPC: 0.124561 cumulative IPC: 0.124359 (Simulation time: 0 hr 44 min 41 sec) 
Heartbeat CPU 1 instructions: 170000002 cycles: 887864067 heartbeat IPC: 0.258337 cumulative IPC: 0.191471 (Simulation time: 0 hr 44 min 52 sec) 
Heartbeat CPU 6 instructions: 110000000 cycles: 893936022 heartbeat IPC: 0.124373 cumulative IPC: 0.123051 (Simulation time: 0 hr 45 min 8 sec) 
Heartbeat CPU 7 instructions: 90000002 cycles: 898537512 heartbeat IPC: 0.0981749 cumulative IPC: 0.100163 (Simulation time: 0 hr 45 min 21 sec) 
*** Reached end of trace for Core: 2 Repeating trace: /data/behnam/ChampSim/tracer/behnam_trace/streaming_phase1_core2.trace.gz
Heartbeat CPU 2 instructions: 200000000 cycles: 911880825 heartbeat IPC: 0.158769 cumulative IPC: 0.219327 (Simulation time: 0 hr 45 min 58 sec) 
Heartbeat CPU 3 instructions: 170000000 cycles: 912813841 heartbeat IPC: 0.184717 cumulative IPC: 0.186237 (Simulation time: 0 hr 46 min 2 sec) 
Heartbeat CPU 0 instructions: 180000000 cycles: 917828436 heartbeat IPC: 0.195556 cumulative IPC: 0.196115 (Simulation time: 0 hr 46 min 18 sec) 
Heartbeat CPU 4 instructions: 110000000 cycles: 921050991 heartbeat IPC: 0.135332 cumulative IPC: 0.119429 (Simulation time: 0 hr 46 min 28 sec) 
Heartbeat CPU 1 instructions: 180000000 cycles: 941828954 heartbeat IPC: 0.185306 cumulative IPC: 0.191118 (Simulation time: 0 hr 47 min 30 sec) 
Heartbeat CPU 2 instructions: 210000001 cycles: 953789775 heartbeat IPC: 0.238613 cumulative IPC: 0.220174 (Simulation time: 0 hr 48 min 4 sec) 
Heartbeat CPU 5 instructions: 120000000 cycles: 964968592 heartbeat IPC: 0.124328 cumulative IPC: 0.124356 (Simulation time: 0 hr 48 min 38 sec) 
Heartbeat CPU 3 instructions: 180000000 cycles: 967364255 heartbeat IPC: 0.183317 cumulative IPC: 0.186073 (Simulation time: 0 hr 48 min 45 sec) 
Heartbeat CPU 0 instructions: 190000001 cycles: 972287957 heartbeat IPC: 0.183623 cumulative IPC: 0.195415 (Simulation time: 0 hr 49 min 1 sec) 
Heartbeat CPU 6 instructions: 120000000 cycles: 974599322 heartbeat IPC: 0.123972 cumulative IPC: 0.123128 (Simulation time: 0 hr 49 min 8 sec) 
Heartbeat CPU 2 instructions: 220000000 cycles: 983851658 heartbeat IPC: 0.332647 cumulative IPC: 0.223611 (Simulation time: 0 hr 49 min 36 sec) 
Heartbeat CPU 1 instructions: 190000003 cycles: 996373615 heartbeat IPC: 0.183336 cumulative IPC: 0.190692 (Simulation time: 0 hr 50 min 14 sec) 
*** Reached end of trace for Core: 7 Repeating trace: /data/behnam/ChampSim/tracer/behnam_trace/cloud9_phase1_core3.trace.gz
Heartbeat CPU 7 instructions: 100000000 cycles: 997894668 heartbeat IPC: 0.100647 cumulative IPC: 0.100211 (Simulation time: 0 hr 50 min 19 sec) 
Heartbeat CPU 4 instructions: 120000000 cycles: 1006275843 heartbeat IPC: 0.117337 cumulative IPC: 0.119252 (Simulation time: 0 hr 50 min 46 sec) 
Heartbeat CPU 2 instructions: 230000003 cycles: 1012339720 heartbeat IPC: 0.351024 cumulative IPC: 0.227196 (Simulation time: 0 hr 51 min 4 sec) 
Heartbeat CPU 3 instructions: 190000001 cycles: 1021652033 heartbeat IPC: 0.184204 cumulative IPC: 0.185973 (Simulation time: 0 hr 51 min 34 sec) 
*** Reached end of trace for Core: 0 Repeating trace: /data/behnam/ChampSim/tracer/behnam_trace/streaming_phase1_core0.trace.gz
Heartbeat CPU 0 instructions: 200000000 cycles: 1027266675 heartbeat IPC: 0.181889 cumulative IPC: 0.194691 (Simulation time: 0 hr 51 min 51 sec) 
Heartbeat CPU 5 instructions: 130000002 cycles: 1045463039 heartbeat IPC: 0.124232 cumulative IPC: 0.124347 (Simulation time: 0 hr 52 min 42 sec) 
*** Reached end of trace for Core: 1 Repeating trace: /data/behnam/ChampSim/tracer/behnam_trace/streaming_phase1_core1.trace.gz
Heartbeat CPU 1 instructions: 200000000 cycles: 1050265703 heartbeat IPC: 0.185556 cumulative IPC: 0.190428 (Simulation time: 0 hr 52 min 55 sec) 
Heartbeat CPU 2 instructions: 240000000 cycles: 1053004840 heartbeat IPC: 0.245911 cumulative IPC: 0.227919 (Simulation time: 0 hr 53 min 2 sec) 
Heartbeat CPU 6 instructions: 130000000 cycles: 1055262101 heartbeat IPC: 0.123973 cumulative IPC: 0.123192 (Simulation time: 0 hr 53 min 9 sec) 
*** Reached end of trace for Core: 3 Repeating trace: /data/behnam/ChampSim/tracer/behnam_trace/streaming_phase1_core3.trace.gz
Heartbeat CPU 3 instructions: 200000000 cycles: 1076287186 heartbeat IPC: 0.183032 cumulative IPC: 0.185824 (Simulation time: 0 hr 54 min 7 sec) 
Heartbeat CPU 0 instructions: 210000003 cycles: 1079515681 heartbeat IPC: 0.191391 cumulative IPC: 0.194532 (Simulation time: 0 hr 54 min 15 sec) 
Heartbeat CPU 7 instructions: 110000000 cycles: 1094304867 heartbeat IPC: 0.103723 cumulative IPC: 0.10052 (Simulation time: 0 hr 54 min 56 sec) 
Heartbeat CPU 4 instructions: 130000000 cycles: 1099642791 heartbeat IPC: 0.107104 cumulative IPC: 0.11822 (Simulation time: 0 hr 55 min 10 sec) 
Heartbeat CPU 1 instructions: 210000001 cycles: 1103937347 heartbeat IPC: 0.186318 cumulative IPC: 0.190228 (Simulation time: 0 hr 55 min 22 sec) 
Heartbeat CPU 2 instructions: 250000000 cycles: 1116749665 heartbeat IPC: 0.156875 cumulative IPC: 0.223864 (Simulation time: 0 hr 55 min 58 sec) 
Heartbeat CPU 5 instructions: 140000000 cycles: 1124425602 heartbeat IPC: 0.126642 cumulative IPC: 0.124508 (Simulation time: 0 hr 56 min 18 sec) 
Heartbeat CPU 3 instructions: 210000002 cycles: 1127311828 heartbeat IPC: 0.195984 cumulative IPC: 0.186284 (Simulation time: 0 hr 56 min 26 sec) 
Heartbeat CPU 0 instructions: 220000000 cycles: 1133766445 heartbeat IPC: 0.184329 cumulative IPC: 0.194043 (Simulation time: 0 hr 56 min 44 sec) 
Heartbeat CPU 6 instructions: 140000000 cycles: 1135873593 heartbeat IPC: 0.124052 cumulative IPC: 0.123253 (Simulation time: 0 hr 56 min 49 sec) 
Heartbeat CPU 1 instructions: 220000000 cycles: 1158022922 heartbeat IPC: 0.184892 cumulative IPC: 0.189979 (Simulation time: 0 hr 57 min 51 sec) 
Heartbeat CPU 2 instructions: 260000000 cycles: 1172868383 heartbeat IPC: 0.178194 cumulative IPC: 0.221679 (Simulation time: 0 hr 58 min 33 sec) 
Heartbeat CPU 3 instructions: 220000000 cycles: 1181323398 heartbeat IPC: 0.185145 cumulative IPC: 0.186232 (Simulation time: 0 hr 58 min 59 sec) 
Heartbeat CPU 4 instructions: 140000000 cycles: 1182954966 heartbeat IPC: 0.12003 cumulative IPC: 0.118348 (Simulation time: 0 hr 59 min 4 sec) 
Heartbeat CPU 0 instructions: 230000001 cycles: 1188098061 heartbeat IPC: 0.184055 cumulative IPC: 0.193587 (Simulation time: 0 hr 59 min 21 sec) 
Heartbeat CPU 7 instructions: 120000000 cycles: 1192470257 heartbeat IPC: 0.101869 cumulative IPC: 0.100631 (Simulation time: 0 hr 59 min 36 sec) 
Heartbeat CPU 2 instructions: 270000001 cycles: 1201279153 heartbeat IPC: 0.351979 cumulative IPC: 0.22476 (Simulation time: 1 hr 0 min 5 sec) 
Heartbeat CPU 5 instructions: 150000002 cycles: 1203383349 heartbeat IPC: 0.12665 cumulative IPC: 0.124649 (Simulation time: 1 hr 0 min 12 sec) 
Heartbeat CPU 1 instructions: 230000003 cycles: 1211863811 heartbeat IPC: 0.185732 cumulative IPC: 0.18979 (Simulation time: 1 hr 0 min 39 sec) 
Heartbeat CPU 6 instructions: 150000003 cycles: 1217792052 heartbeat IPC: 0.122073 cumulative IPC: 0.123174 (Simulation time: 1 hr 0 min 56 sec) 
Heartbeat CPU 3 instructions: 230000000 cycles: 1235109025 heartbeat IPC: 0.185923 cumulative IPC: 0.186218 (Simulation time: 1 hr 1 min 44 sec) 
Heartbeat CPU 0 instructions: 240000000 cycles: 1241988311 heartbeat IPC: 0.185562 cumulative IPC: 0.193239 (Simulation time: 1 hr 2 min 3 sec) 
Heartbeat CPU 2 instructions: 280000000 cycles: 1247872192 heartbeat IPC: 0.214624 cumulative IPC: 0.224382 (Simulation time: 1 hr 2 min 19 sec) 
Heartbeat CPU 1 instructions: 240000000 cycles: 1265782469 heartbeat IPC: 0.185465 cumulative IPC: 0.189606 (Simulation time: 1 hr 3 min 8 sec) 
Heartbeat CPU 4 instructions: 150000003 cycles: 1275090639 heartbeat IPC: 0.108536 cumulative IPC: 0.117639 (Simulation time: 1 hr 3 min 35 sec) 
Heartbeat CPU 5 instructions: 160000000 cycles: 1284397628 heartbeat IPC: 0.123435 cumulative IPC: 0.124572 (Simulation time: 1 hr 4 min 1 sec) 
Heartbeat CPU 3 instructions: 240000000 cycles: 1288746822 heartbeat IPC: 0.186436 cumulative IPC: 0.186227 (Simulation time: 1 hr 4 min 13 sec) 
Heartbeat CPU 7 instructions: 130000002 cycles: 1293661756 heartbeat IPC: 0.0988225 cumulative IPC: 0.10049 (Simulation time: 1 hr 4 min 27 sec) 
Heartbeat CPU 0 instructions: 250000003 cycles: 1295716284 heartbeat IPC: 0.186123 cumulative IPC: 0.192943 (Simulation time: 1 hr 4 min 33 sec) 
Heartbeat CPU 6 instructions: 160000000 cycles: 1299722507 heartbeat IPC: 0.122055 cumulative IPC: 0.123103 (Simulation time: 1 hr 4 min 44 sec) 
Heartbeat CPU 2 instructions: 290000003 cycles: 1308023477 heartbeat IPC: 0.166248 cumulative IPC: 0.221709 (Simulation time: 1 hr 5 min 7 sec) 
Heartbeat CPU 1 instructions: 250000003 cycles: 1320141245 heartbeat IPC: 0.183963 cumulative IPC: 0.189374 (Simulation time: 1 hr 5 min 41 sec) 
Heartbeat CPU 3 instructions: 250000002 cycles: 1342869956 heartbeat IPC: 0.184764 cumulative IPC: 0.186168 (Simulation time: 1 hr 6 min 44 sec) 
Heartbeat CPU 0 instructions: 260000000 cycles: 1349927819 heartbeat IPC: 0.184463 cumulative IPC: 0.192603 (Simulation time: 1 hr 7 min 4 sec) 
Heartbeat CPU 4 instructions: 160000000 cycles: 1353114389 heartbeat IPC: 0.128166 cumulative IPC: 0.118246 (Simulation time: 1 hr 7 min 13 sec) 
Heartbeat CPU 5 instructions: 170000000 cycles: 1366292579 heartbeat IPC: 0.122108 cumulative IPC: 0.124424 (Simulation time: 1 hr 7 min 54 sec) 
*** Reached end of trace for Core: 2 Repeating trace: /data/behnam/ChampSim/tracer/behnam_trace/streaming_phase1_core2.trace.gz
Heartbeat CPU 2 instructions: 300000000 cycles: 1370793427 heartbeat IPC: 0.159312 cumulative IPC: 0.218851 (Simulation time: 1 hr 8 min 10 sec) 
Heartbeat CPU 1 instructions: 260000000 cycles: 1374729364 heartbeat IPC: 0.18319 cumulative IPC: 0.189128 (Simulation time: 1 hr 8 min 22 sec) 
Heartbeat CPU 0 instructions: 270000000 cycles: 1380614275 heartbeat IPC: 0.325877 cumulative IPC: 0.195565 (Simulation time: 1 hr 8 min 41 sec) 
Heartbeat CPU 6 instructions: 170000000 cycles: 1381777919 heartbeat IPC: 0.121869 cumulative IPC: 0.12303 (Simulation time: 1 hr 8 min 44 sec) 
Heartbeat CPU 7 instructions: 140000000 cycles: 1393050070 heartbeat IPC: 0.100615 cumulative IPC: 0.100499 (Simulation time: 1 hr 9 min 19 sec) 
Heartbeat CPU 3 instructions: 260000000 cycles: 1397186920 heartbeat IPC: 0.184105 cumulative IPC: 0.186088 (Simulation time: 1 hr 9 min 30 sec) 
Heartbeat CPU 2 instructions: 310000000 cycles: 1412835324 heartbeat IPC: 0.237858 cumulative IPC: 0.219417 (Simulation time: 1 hr 10 min 21 sec) 
Heartbeat CPU 1 instructions: 270000001 cycles: 1413220848 heartbeat IPC: 0.259798 cumulative IPC: 0.191053 (Simulation time: 1 hr 10 min 22 sec) 
Heartbeat CPU 4 instructions: 170000003 cycles: 1425661445 heartbeat IPC: 0.137842 cumulative IPC: 0.119243 (Simulation time: 1 hr 11 min 0 sec) 
Heartbeat CPU 0 instructions: 280000000 cycles: 1431640692 heartbeat IPC: 0.195977 cumulative IPC: 0.19558 (Simulation time: 1 hr 11 min 19 sec) 
Heartbeat CPU 2 instructions: 320000000 cycles: 1442273792 heartbeat IPC: 0.339692 cumulative IPC: 0.221872 (Simulation time: 1 hr 11 min 53 sec) 
Heartbeat CPU 5 instructions: 180000000 cycles: 1448097952 heartbeat IPC: 0.122241 cumulative IPC: 0.124301 (Simulation time: 1 hr 12 min 11 sec) 
Heartbeat CPU 3 instructions: 270000003 cycles: 1451272523 heartbeat IPC: 0.184892 cumulative IPC: 0.186044 (Simulation time: 1 hr 12 min 21 sec) 
Heartbeat CPU 6 instructions: 180000000 cycles: 1463766124 heartbeat IPC: 0.121969 cumulative IPC: 0.12297 (Simulation time: 1 hr 13 min 4 sec) 
Heartbeat CPU 1 instructions: 280000000 cycles: 1467133007 heartbeat IPC: 0.185487 cumulative IPC: 0.190848 (Simulation time: 1 hr 13 min 14 sec) 
Heartbeat CPU 2 instructions: 330000003 cycles: 1469988315 heartbeat IPC: 0.360822 cumulative IPC: 0.224492 (Simulation time: 1 hr 13 min 23 sec) 
Heartbeat CPU 0 instructions: 290000000 cycles: 1486039375 heartbeat IPC: 0.183828 cumulative IPC: 0.19515 (Simulation time: 1 hr 14 min 14 sec) 
Heartbeat CPU 7 instructions: 150000002 cycles: 1493141430 heartbeat IPC: 0.0999087 cumulative IPC: 0.100459 (Simulation time: 1 hr 14 min 34 sec) 
Heartbeat CPU 4 instructions: 180000000 cycles: 1498281206 heartbeat IPC: 0.137704 cumulative IPC: 0.120138 (Simulation time: 1 hr 14 min 48 sec) 
Heartbeat CPU 3 instructions: 280000000 cycles: 1505792780 heartbeat IPC: 0.183418 cumulative IPC: 0.185949 (Simulation time: 1 hr 15 min 8 sec) 
Heartbeat CPU 2 instructions: 340000000 cycles: 1510327043 heartbeat IPC: 0.247901 cumulative IPC: 0.225117 (Simulation time: 1 hr 15 min 21 sec) 
Heartbeat CPU 1 instructions: 290000002 cycles: 1521569556 heartbeat IPC: 0.1837 cumulative IPC: 0.190593 (Simulation time: 1 hr 15 min 51 sec) 
Heartbeat CPU 5 instructions: 190000002 cycles: 1528963445 heartbeat IPC: 0.123662 cumulative IPC: 0.124267 (Simulation time: 1 hr 16 min 12 sec) 
*** Reached end of trace for Core: 0 Repeating trace: /data/behnam/ChampSim/tracer/behnam_trace/streaming_phase1_core0.trace.gz
Heartbeat CPU 0 instructions: 300000000 cycles: 1540803217 heartbeat IPC: 0.182602 cumulative IPC: 0.194704 (Simulation time: 1 hr 16 min 44 sec) 
Heartbeat CPU 6 instructions: 190000000 cycles: 1545820996 heartbeat IPC: 0.12187 cumulative IPC: 0.122912 (Simulation time: 1 hr 16 min 58 sec) 
Heartbeat CPU 3 instructions: 290000002 cycles: 1559848151 heartbeat IPC: 0.184996 cumulative IPC: 0.185916 (Simulation time: 1 hr 17 min 36 sec) 
Heartbeat CPU 2 instructions: 350000000 cycles: 1574067885 heartbeat IPC: 0.156885 cumulative IPC: 0.222354 (Simulation time: 1 hr 18 min 16 sec) 
*** Reached end of trace for Core: 1 Repeating trace: /data/behnam/ChampSim/tracer/behnam_trace/streaming_phase1_core1.trace.gz
Heartbeat CPU 1 instructions: 300000000 cycles: 1575263545 heartbeat IPC: 0.186241 cumulative IPC: 0.190444 (Simulation time: 1 hr 18 min 19 sec) 
Heartbeat CPU 0 instructions: 310000000 cycles: 1592929728 heartbeat IPC: 0.191841 cumulative IPC: 0.19461 (Simulation time: 1 hr 19 min 7 sec) 
Heartbeat CPU 7 instructions: 160000000 cycles: 1594575762 heartbeat IPC: 0.0985859 cumulative IPC: 0.10034 (Simulation time: 1 hr 19 min 12 sec) 
Heartbeat CPU 4 instructions: 190000002 cycles: 1595332425 heartbeat IPC: 0.103038 cumulative IPC: 0.119097 (Simulation time: 1 hr 19 min 14 sec) 
*** Reached end of trace for Core: 5 Repeating trace: /data/behnam/ChampSim/tracer/behnam_trace/cloud9_phase1_core1.trace.gz
Heartbeat CPU 5 instructions: 200000000 cycles: 1609996213 heartbeat IPC: 0.123407 cumulative IPC: 0.124224 (Simulation time: 1 hr 19 min 53 sec) 
*** Reached end of trace for Core: 3 Repeating trace: /data/behnam/ChampSim/tracer/behnam_trace/streaming_phase1_core3.trace.gz
Heartbeat CPU 3 instructions: 300000000 cycles: 1614330323 heartbeat IPC: 0.183546 cumulative IPC: 0.185836 (Simulation time: 1 hr 20 min 6 sec) 
*** Reached end of trace for Core: 6 Repeating trace: /data/behnam/ChampSim/tracer/behnam_trace/cloud9_phase1_core2.trace.gz
Heartbeat CPU 6 instructions: 200000000 cycles: 1628565835 heartbeat IPC: 0.120853 cumulative IPC: 0.122807 (Simulation time: 1 hr 20 min 46 sec) 
Heartbeat CPU 1 instructions: 310000001 cycles: 1628871159 heartbeat IPC: 0.186541 cumulative IPC: 0.190316 (Simulation time: 1 hr 20 min 47 sec) 
Heartbeat CPU 2 instructions: 360000000 cycles: 1630159563 heartbeat IPC: 0.17828 cumulative IPC: 0.220837 (Simulation time: 1 hr 20 min 50 sec) 
Heartbeat CPU 0 instructions: 320000000 cycles: 1647156081 heartbeat IPC: 0.184412 cumulative IPC: 0.194274 (Simulation time: 1 hr 21 min 42 sec) 
Heartbeat CPU 2 instructions: 370000003 cycles: 1657923158 heartbeat IPC: 0.360184 cumulative IPC: 0.223171 (Simulation time: 1 hr 22 min 18 sec) 
Heartbeat CPU 3 instructions: 310000001 cycles: 1665447060 heartbeat IPC: 0.195631 cumulative IPC: 0.186136 (Simulation time: 1 hr 22 min 41 sec) 
Heartbeat CPU 1 instructions: 320000000 cycles: 1682963954 heartbeat IPC: 0.184867 cumulative IPC: 0.190141 (Simulation time: 1 hr 23 min 31 sec) 
Heartbeat CPU 5 instructions: 210000003 cycles: 1690263266 heartbeat IPC: 0.124584 cumulative IPC: 0.124241 (Simulation time: 1 hr 23 min 51 sec) 
*** Reached end of trace for Core: 4 Repeating trace: /data/behnam/ChampSim/tracer/behnam_trace/cloud9_phase1_core0.trace.gz
Heartbeat CPU 4 instructions: 200000000 cycles: 1693784685 heartbeat IPC: 0.101572 cumulative IPC: 0.118079 (Simulation time: 1 hr 24 min 1 sec) 
Heartbeat CPU 7 instructions: 170000000 cycles: 1693804463 heartbeat IPC: 0.100777 cumulative IPC: 0.100366 (Simulation time: 1 hr 24 min 1 sec) 
Heartbeat CPU 0 instructions: 330000001 cycles: 1701481844 heartbeat IPC: 0.184075 cumulative IPC: 0.193949 (Simulation time: 1 hr 24 min 23 sec) 
Heartbeat CPU 2 instructions: 380000000 cycles: 1704364090 heartbeat IPC: 0.215327 cumulative IPC: 0.222957 (Simulation time: 1 hr 24 min 31 sec) 
Heartbeat CPU 6 instructions: 210000000 cycles: 1708895438 heartbeat IPC: 0.124487 cumulative IPC: 0.122886 (Simulation time: 1 hr 24 min 44 sec) 
Heartbeat CPU 3 instructions: 320000000 cycles: 1719456905 heartbeat IPC: 0.185151 cumulative IPC: 0.186105 (Simulation time: 1 hr 25 min 15 sec) 
Heartbeat CPU 1 instructions: 330000002 cycles: 1736693703 heartbeat IPC: 0.186117 cumulative IPC: 0.190016 (Simulation time: 1 hr 26 min 5 sec) 
Heartbeat CPU 0 instructions: 340000000 cycles: 1755268303 heartbeat IPC: 0.18592 cumulative IPC: 0.193703 (Simulation time: 1 hr 26 min 58 sec) 
Heartbeat CPU 2 instructions: 390000000 cycles: 1764497665 heartbeat IPC: 0.166296 cumulative IPC: 0.221026 (Simulation time: 1 hr 27 min 23 sec) 
Heartbeat CPU 4 instructions: 210000002 cycles: 1767561483 heartbeat IPC: 0.135544 cumulative IPC: 0.118808 (Simulation time: 1 hr 27 min 32 sec) 
Heartbeat CPU 5 instructions: 220000000 cycles: 1770607802 heartbeat IPC: 0.124464 cumulative IPC: 0.124251 (Simulation time: 1 hr 27 min 40 sec) 
Heartbeat CPU 3 instructions: 330000001 cycles: 1773105992 heartbeat IPC: 0.186396 cumulative IPC: 0.186114 (Simulation time: 1 hr 27 min 47 sec) 
Heartbeat CPU 6 instructions: 220000000 cycles: 1789456290 heartbeat IPC: 0.12413 cumulative IPC: 0.122942 (Simulation time: 1 hr 28 min 33 sec) 
Heartbeat CPU 1 instructions: 340000000 cycles: 1790554258 heartbeat IPC: 0.185665 cumulative IPC: 0.189885 (Simulation time: 1 hr 28 min 37 sec) 
Heartbeat CPU 7 instructions: 180000000 cycles: 1793794488 heartbeat IPC: 0.10001 cumulative IPC: 0.100346 (Simulation time: 1 hr 28 min 46 sec) 
Heartbeat CPU 0 instructions: 350000003 cycles: 1808919810 heartbeat IPC: 0.186388 cumulative IPC: 0.193486 (Simulation time: 1 hr 29 min 28 sec) 
*** Reached end of trace for Core: 2 Repeating trace: /data/behnam/ChampSim/tracer/behnam_trace/streaming_phase1_core2.trace.gz
Heartbeat CPU 3 instructions: 340000000 cycles: 1826665740 heartbeat IPC: 0.186707 cumulative IPC: 0.186131 (Simulation time: 1 hr 30 min 19 sec) 
Heartbeat CPU 2 instructions: 400000000 cycles: 1827043905 heartbeat IPC: 0.159882 cumulative IPC: 0.218933 (Simulation time: 1 hr 30 min 20 sec) 
Heartbeat CPU 1 instructions: 350000000 cycles: 1844937278 heartbeat IPC: 0.183881 cumulative IPC: 0.189708 (Simulation time: 1 hr 31 min 15 sec) 
Heartbeat CPU 5 instructions: 230000000 cycles: 1850989979 heartbeat IPC: 0.124406 cumulative IPC: 0.124258 (Simulation time: 1 hr 31 min 32 sec) 
Heartbeat CPU 4 instructions: 220000000 cycles: 1852570415 heartbeat IPC: 0.117635 cumulative IPC: 0.118754 (Simulation time: 1 hr 31 min 36 sec) 
Heartbeat CPU 0 instructions: 360000000 cycles: 1863241550 heartbeat IPC: 0.184088 cumulative IPC: 0.193212 (Simulation time: 1 hr 32 min 5 sec) 
Heartbeat CPU 2 instructions: 410000000 cycles: 1869608927 heartbeat IPC: 0.234935 cumulative IPC: 0.219297 (Simulation time: 1 hr 32 min 22 sec) 
Heartbeat CPU 6 instructions: 230000001 cycles: 1869968913 heartbeat IPC: 0.124204 cumulative IPC: 0.122997 (Simulation time: 1 hr 32 min 23 sec) 
Heartbeat CPU 3 instructions: 350000003 cycles: 1880928874 heartbeat IPC: 0.184287 cumulative IPC: 0.186078 (Simulation time: 1 hr 33 min 2 sec) 
Heartbeat CPU 0 instructions: 370000001 cycles: 1894842384 heartbeat IPC: 0.316447 cumulative IPC: 0.195267 (Simulation time: 1 hr 33 min 48 sec) 
Heartbeat CPU 7 instructions: 190000001 cycles: 1895688398 heartbeat IPC: 0.0981413 cumulative IPC: 0.100227 (Simulation time: 1 hr 33 min 51 sec) 
Heartbeat CPU 1 instructions: 360000000 cycles: 1899622335 heartbeat IPC: 0.182865 cumulative IPC: 0.189511 (Simulation time: 1 hr 34 min 4 sec) 
Heartbeat CPU 2 instructions: 420000000 cycles: 1900111741 heartbeat IPC: 0.327839 cumulative IPC: 0.22104 (Simulation time: 1 hr 34 min 5 sec) 
Heartbeat CPU 2 instructions: 430000002 cycles: 1928605454 heartbeat IPC: 0.350955 cumulative IPC: 0.222959 (Simulation time: 1 hr 35 min 38 sec) 
Heartbeat CPU 5 instructions: 240000000 cycles: 1930005928 heartbeat IPC: 0.126557 cumulative IPC: 0.124352 (Simulation time: 1 hr 35 min 43 sec) 
Heartbeat CPU 3 instructions: 360000000 cycles: 1935309393 heartbeat IPC: 0.183889 cumulative IPC: 0.186017 (Simulation time: 1 hr 36 min 4 sec) 
Heartbeat CPU 1 instructions: 370000000 cycles: 1938479550 heartbeat IPC: 0.257352 cumulative IPC: 0.190871 (Simulation time: 1 hr 36 min 15 sec) 
Heartbeat CPU 0 instructions: 380000000 cycles: 1946057753 heartbeat IPC: 0.195254 cumulative IPC: 0.195267 (Simulation time: 1 hr 36 min 39 sec) 
Heartbeat CPU 4 instructions: 230000001 cycles: 1946212295 heartbeat IPC: 0.10679 cumulative IPC: 0.118178 (Simulation time: 1 hr 36 min 39 sec) 
Heartbeat CPU 6 instructions: 240000000 cycles: 1950773999 heartbeat IPC: 0.123755 cumulative IPC: 0.123028 (Simulation time: 1 hr 36 min 52 sec) 
Heartbeat CPU 2 instructions: 440000000 cycles: 1969785199 heartbeat IPC: 0.242838 cumulative IPC: 0.223375 (Simulation time: 1 hr 37 min 46 sec) 
Heartbeat CPU 3 instructions: 370000003 cycles: 1989399885 heartbeat IPC: 0.184875 cumulative IPC: 0.185986 (Simulation time: 1 hr 38 min 41 sec) 
Heartbeat CPU 1 instructions: 380000000 cycles: 1992416910 heartbeat IPC: 0.1854 cumulative IPC: 0.190723 (Simulation time: 1 hr 38 min 50 sec) 
*** Reached end of trace for Core: 7 Repeating trace: /data/behnam/ChampSim/tracer/behnam_trace/cloud9_phase1_core3.trace.gz
Heartbeat CPU 7 instructions: 200000000 cycles: 1995142617 heartbeat IPC: 0.100549 cumulative IPC: 0.100243 (Simulation time: 1 hr 38 min 58 sec) 
Heartbeat CPU 0 instructions: 390000003 cycles: 2000423605 heartbeat IPC: 0.183939 cumulative IPC: 0.194959 (Simulation time: 1 hr 39 min 12 sec) 
Heartbeat CPU 5 instructions: 250000001 cycles: 2009066659 heartbeat IPC: 0.126485 cumulative IPC: 0.124436 (Simulation time: 1 hr 39 min 36 sec) 
Heartbeat CPU 4 instructions: 240000000 cycles: 2030211830 heartbeat IPC: 0.119048 cumulative IPC: 0.118214 (Simulation time: 1 hr 40 min 35 sec) 
Heartbeat CPU 6 instructions: 250000003 cycles: 2032762453 heartbeat IPC: 0.121968 cumulative IPC: 0.122985 (Simulation time: 1 hr 40 min 42 sec) 
Heartbeat CPU 2 instructions: 450000000 cycles: 2033552823 heartbeat IPC: 0.156819 cumulative IPC: 0.221288 (Simulation time: 1 hr 40 min 44 sec) 
Heartbeat CPU 3 instructions: 380000000 cycles: 2043876665 heartbeat IPC: 0.183564 cumulative IPC: 0.185921 (Simulation time: 1 hr 41 min 12 sec) 
Heartbeat CPU 1 instructions: 390000000 cycles: 2046814631 heartbeat IPC: 0.183831 cumulative IPC: 0.19054 (Simulation time: 1 hr 41 min 20 sec) 
*** Reached end of trace for Core: 0 Repeating trace: /data/behnam/ChampSim/tracer/behnam_trace/streaming_phase1_core0.trace.gz
Heartbeat CPU 0 instructions: 400000000 cycles: 2055248295 heartbeat IPC: 0.1824 cumulative IPC: 0.194624 (Simulation time: 1 hr 41 min 43 sec) 
Heartbeat CPU 2 instructions: 460000000 cycles: 2089724129 heartbeat IPC: 0.178027 cumulative IPC: 0.220125 (Simulation time: 1 hr 43 min 21 sec) 
Heartbeat CPU 5 instructions: 260000000 cycles: 2090023172 heartbeat IPC: 0.123523 cumulative IPC: 0.124401 (Simulation time: 1 hr 43 min 22 sec) 
Heartbeat CPU 7 instructions: 210000001 cycles: 2091275124 heartbeat IPC: 0.104023 cumulative IPC: 0.100417 (Simulation time: 1 hr 43 min 26 sec) 
Heartbeat CPU 3 instructions: 390000000 cycles: 2098029699 heartbeat IPC: 0.184662 cumulative IPC: 0.185889 (Simulation time: 1 hr 43 min 45 sec) 
*** Reached end of trace for Core: 1 Repeating trace: /data/behnam/ChampSim/tracer/behnam_trace/streaming_phase1_core1.trace.gz
Heartbeat CPU 1 instructions: 400000000 cycles: 2100612445 heartbeat IPC: 0.185881 cumulative IPC: 0.190421 (Simulation time: 1 hr 43 min 54 sec) 
Heartbeat CPU 0 instructions: 410000000 cycles: 2107485659 heartbeat IPC: 0.191434 cumulative IPC: 0.194545 (Simulation time: 1 hr 44 min 16 sec) 
Heartbeat CPU 6 instructions: 260000000 cycles: 2114734144 heartbeat IPC: 0.121993 cumulative IPC: 0.122947 (Simulation time: 1 hr 44 min 40 sec) 
Heartbeat CPU 2 instructions: 470000001 cycles: 2117683968 heartbeat IPC: 0.357656 cumulative IPC: 0.221941 (Simulation time: 1 hr 44 min 49 sec) 
Heartbeat CPU 4 instructions: 250000002 cycles: 2122248012 heartbeat IPC: 0.108653 cumulative IPC: 0.1178 (Simulation time: 1 hr 45 min 4 sec) 
*** Reached end of trace for Core: 3 Repeating trace: /data/behnam/ChampSim/tracer/behnam_trace/streaming_phase1_core3.trace.gz
Heartbeat CPU 3 instructions: 400000000 cycles: 2152729575 heartbeat IPC: 0.182816 cumulative IPC: 0.185811 (Simulation time: 1 hr 46 min 32 sec) 
Heartbeat CPU 1 instructions: 410000000 cycles: 2154383440 heartbeat IPC: 0.185974 cumulative IPC: 0.19031 (Simulation time: 1 hr 46 min 36 sec) 
Heartbeat CPU 0 instructions: 420000000 cycles: 2161807056 heartbeat IPC: 0.18409 cumulative IPC: 0.194282 (Simulation time: 1 hr 46 min 56 sec) 
Heartbeat CPU 2 instructions: 480000000 cycles: 2164583521 heartbeat IPC: 0.213222 cumulative IPC: 0.221752 (Simulation time: 1 hr 47 min 4 sec) 
Heartbeat CPU 5 instructions: 270000002 cycles: 2172010281 heartbeat IPC: 0.12197 cumulative IPC: 0.124309 (Simulation time: 1 hr 47 min 25 sec) 
Heartbeat CPU 7 instructions: 220000000 cycles: 2189572099 heartbeat IPC: 0.101733 cumulative IPC: 0.100476 (Simulation time: 1 hr 48 min 14 sec) 
Heartbeat CPU 6 instructions: 270000000 cycles: 2196836248 heartbeat IPC: 0.1218 cumulative IPC: 0.122904 (Simulation time: 1 hr 48 min 34 sec) 
Heartbeat CPU 4 instructions: 260000000 cycles: 2200296229 heartbeat IPC: 0.128126 cumulative IPC: 0.118166 (Simulation time: 1 hr 48 min 44 sec) 
Heartbeat CPU 3 instructions: 410000001 cycles: 2203788269 heartbeat IPC: 0.195853 cumulative IPC: 0.186043 (Simulation time: 1 hr 48 min 54 sec) 
Heartbeat CPU 1 instructions: 420000000 cycles: 2208472457 heartbeat IPC: 0.18488 cumulative IPC: 0.190177 (Simulation time: 1 hr 49 min 6 sec) 
Heartbeat CPU 0 instructions: 430000000 cycles: 2216109766 heartbeat IPC: 0.184153 cumulative IPC: 0.194034 (Simulation time: 1 hr 49 min 28 sec) 
Heartbeat CPU 2 instructions: 490000001 cycles: 2224676705 heartbeat IPC: 0.166408 cumulative IPC: 0.220257 (Simulation time: 1 hr 49 min 52 sec) 
Heartbeat CPU 5 instructions: 280000000 cycles: 2253731051 heartbeat IPC: 0.122368 cumulative IPC: 0.124238 (Simulation time: 1 hr 51 min 12 sec) 
Heartbeat CPU 3 instructions: 420000000 cycles: 2257744861 heartbeat IPC: 0.185334 cumulative IPC: 0.186026 (Simulation time: 1 hr 51 min 24 sec) 
Heartbeat CPU 1 instructions: 430000001 cycles: 2262162843 heartbeat IPC: 0.186253 cumulative IPC: 0.190084 (Simulation time: 1 hr 51 min 36 sec) 
Heartbeat CPU 0 instructions: 440000000 cycles: 2269890290 heartbeat IPC: 0.185941 cumulative IPC: 0.193842 (Simulation time: 1 hr 51 min 57 sec) 
Heartbeat CPU 4 instructions: 270000000 cycles: 2272798290 heartbeat IPC: 0.137927 cumulative IPC: 0.118796 (Simulation time: 1 hr 52 min 6 sec) 
Heartbeat CPU 6 instructions: 280000000 cycles: 2278710744 heartbeat IPC: 0.122138 cumulative IPC: 0.122877 (Simulation time: 1 hr 52 min 22 sec) 
*** Reached end of trace for Core: 2 Repeating trace: /data/behnam/ChampSim/tracer/behnam_trace/streaming_phase1_core2.trace.gz
Heartbeat CPU 2 instructions: 500000000 cycles: 2286953541 heartbeat IPC: 0.160573 cumulative IPC: 0.218631 (Simulation time: 1 hr 52 min 45 sec) 
Heartbeat CPU 7 instructions: 230000003 cycles: 2290468493 heartbeat IPC: 0.0991116 cumulative IPC: 0.100416 (Simulation time: 1 hr 52 min 57 sec) 
Heartbeat CPU 3 instructions: 430000000 cycles: 2311393111 heartbeat IPC: 0.186399 cumulative IPC: 0.186035 (Simulation time: 1 hr 54 min 1 sec) 
Heartbeat CPU 1 instructions: 440000000 cycles: 2316064496 heartbeat IPC: 0.185523 cumulative IPC: 0.189977 (Simulation time: 1 hr 54 min 14 sec) 
Heartbeat CPU 0 instructions: 450000001 cycles: 2323541541 heartbeat IPC: 0.186389 cumulative IPC: 0.19367 (Simulation time: 1 hr 54 min 34 sec) 
Heartbeat CPU 2 instructions: 510000002 cycles: 2329264246 heartbeat IPC: 0.236347 cumulative IPC: 0.218953 (Simulation time: 1 hr 54 min 50 sec) 
Heartbeat CPU 5 instructions: 290000000 cycles: 2334454737 heartbeat IPC: 0.123879 cumulative IPC: 0.124226 (Simulation time: 1 hr 55 min 6 sec) 
Heartbeat CPU 4 instructions: 280000000 cycles: 2345398621 heartbeat IPC: 0.13774 cumulative IPC: 0.119383 (Simulation time: 1 hr 55 min 40 sec) 
Heartbeat CPU 2 instructions: 520000000 cycles: 2358393224 heartbeat IPC: 0.343301 cumulative IPC: 0.220489 (Simulation time: 1 hr 56 min 21 sec) 
Heartbeat CPU 6 instructions: 290000000 cycles: 2360591880 heartbeat IPC: 0.122128 cumulative IPC: 0.122851 (Simulation time: 1 hr 56 min 28 sec) 
Heartbeat CPU 3 instructions: 440000000 cycles: 2364918843 heartbeat IPC: 0.186826 cumulative IPC: 0.186053 (Simulation time: 1 hr 56 min 42 sec) 
Heartbeat CPU 1 instructions: 450000001 cycles: 2370395861 heartbeat IPC: 0.184056 cumulative IPC: 0.189842 (Simulation time: 1 hr 56 min 59 sec) 
Heartbeat CPU 0 instructions: 460000000 cycles: 2377866139 heartbeat IPC: 0.184079 cumulative IPC: 0.193451 (Simulation time: 1 hr 57 min 22 sec) 
Heartbeat CPU 2 instructions: 530000000 cycles: 2386508911 heartbeat IPC: 0.355673 cumulative IPC: 0.222082 (Simulation time: 1 hr 57 min 48 sec) 
Heartbeat CPU 7 instructions: 240000000 cycles: 2389860769 heartbeat IPC: 0.100611 cumulative IPC: 0.100424 (Simulation time: 1 hr 58 min 0 sec) 
Heartbeat CPU 0 instructions: 470000002 cycles: 2408861478 heartbeat IPC: 0.322629 cumulative IPC: 0.195113 (Simulation time: 1 hr 59 min 4 sec) 
*** Reached end of trace for Core: 5 Repeating trace: /data/behnam/ChampSim/tracer/behnam_trace/cloud9_phase1_core1.trace.gz
Heartbeat CPU 5 instructions: 300000000 cycles: 2415444470 heartbeat IPC: 0.123472 cumulative IPC: 0.124201 (Simulation time: 1 hr 59 min 22 sec) 
Heartbeat CPU 3 instructions: 450000003 cycles: 2419194471 heartbeat IPC: 0.184245 cumulative IPC: 0.186012 (Simulation time: 1 hr 59 min 32 sec) 
Heartbeat CPU 1 instructions: 460000000 cycles: 2425015457 heartbeat IPC: 0.183084 cumulative IPC: 0.18969 (Simulation time: 1 hr 59 min 47 sec) 
Heartbeat CPU 2 instructions: 540000000 cycles: 2427957899 heartbeat IPC: 0.24126 cumulative IPC: 0.222409 (Simulation time: 1 hr 59 min 56 sec) 
Heartbeat CPU 4 instructions: 290000003 cycles: 2442567486 heartbeat IPC: 0.102914 cumulative IPC: 0.118728 (Simulation time: 2 hr 0 min 36 sec) 
*** Reached end of trace for Core: 6 Repeating trace: /data/behnam/ChampSim/tracer/behnam_trace/cloud9_phase1_core2.trace.gz
Heartbeat CPU 6 instructions: 300000000 cycles: 2443450170 heartbeat IPC: 0.120688 cumulative IPC: 0.122777 (Simulation time: 2 hr 0 min 38 sec) 
Heartbeat CPU 0 instructions: 480000000 cycles: 2459787801 heartbeat IPC: 0.196362 cumulative IPC: 0.195139 (Simulation time: 2 hr 1 min 28 sec) 
Heartbeat CPU 1 instructions: 470000003 cycles: 2463331927 heartbeat IPC: 0.260984 cumulative IPC: 0.190798 (Simulation time: 2 hr 1 min 38 sec) 
Heartbeat CPU 3 instructions: 460000000 cycles: 2473359935 heartbeat IPC: 0.184619 cumulative IPC: 0.185982 (Simulation time: 2 hr 2 min 5 sec) 
Heartbeat CPU 7 instructions: 250000002 cycles: 2490025837 heartbeat IPC: 0.0998352 cumulative IPC: 0.100401 (Simulation time: 2 hr 2 min 51 sec) 
Heartbeat CPU 2 instructions: 550000001 cycles: 2491735695 heartbeat IPC: 0.156794 cumulative IPC: 0.22073 (Simulation time: 2 hr 2 min 56 sec) 
Heartbeat CPU 5 instructions: 310000001 cycles: 2495815863 heartbeat IPC: 0.124422 cumulative IPC: 0.124208 (Simulation time: 2 hr 3 min 7 sec) 
Heartbeat CPU 0 instructions: 490000002 cycles: 2514088025 heartbeat IPC: 0.184161 cumulative IPC: 0.194902 (Simulation time: 2 hr 3 min 56 sec) 
Heartbeat CPU 1 instructions: 480000000 cycles: 2517166500 heartbeat IPC: 0.185754 cumulative IPC: 0.190691 (Simulation time: 2 hr 4 min 5 sec) 
Heartbeat CPU 6 instructions: 310000001 cycles: 2523862250 heartbeat IPC: 0.124359 cumulative IPC: 0.122828 (Simulation time: 2 hr 4 min 23 sec) 
Heartbeat CPU 3 instructions: 470000001 cycles: 2527348763 heartbeat IPC: 0.185224 cumulative IPC: 0.185966 (Simulation time: 2 hr 4 min 32 sec) 
*** Reached end of trace for Core: 4 Repeating trace: /data/behnam/ChampSim/tracer/behnam_trace/cloud9_phase1_core0.trace.gz
Heartbeat CPU 4 instructions: 300000000 cycles: 2541094867 heartbeat IPC: 0.101495 cumulative IPC: 0.118059 (Simulation time: 2 hr 5 min 12 sec) 
Heartbeat CPU 2 instructions: 560000000 cycles: 2547710329 heartbeat IPC: 0.178652 cumulative IPC: 0.219805 (Simulation time: 2 hr 5 min 31 sec) 
*** Reached end of trace for Core: 0 Repeating trace: /data/behnam/ChampSim/tracer/behnam_trace/streaming_phase1_core0.trace.gz
Heartbeat CPU 0 instructions: 500000000 cycles: 2568961641 heartbeat IPC: 0.182237 cumulative IPC: 0.194631 (Simulation time: 2 hr 6 min 40 sec) 
Heartbeat CPU 1 instructions: 490000000 cycles: 2571561324 heartbeat IPC: 0.183841 cumulative IPC: 0.190546 (Simulation time: 2 hr 6 min 49 sec) 
Heartbeat CPU 2 instructions: 570000001 cycles: 2575396543 heartbeat IPC: 0.361191 cumulative IPC: 0.221325 (Simulation time: 2 hr 7 min 1 sec) 
Heartbeat CPU 5 instructions: 320000000 cycles: 2576213668 heartbeat IPC: 0.124381 cumulative IPC: 0.124213 (Simulation time: 2 hr 7 min 4 sec) 
Heartbeat CPU 3 instructions: 480000000 cycles: 2581908455 heartbeat IPC: 0.183285 cumulative IPC: 0.185909 (Simulation time: 2 hr 7 min 22 sec) 
Heartbeat CPU 7 instructions: 260000000 cycles: 2591501248 heartbeat IPC: 0.098546 cumulative IPC: 0.100328 (Simulation time: 2 hr 7 min 50 sec) 
Heartbeat CPU 6 instructions: 320000000 cycles: 2604468144 heartbeat IPC: 0.12406 cumulative IPC: 0.122866 (Simulation time: 2 hr 8 min 27 sec) 
Heartbeat CPU 4 instructions: 310000002 cycles: 2615018380 heartbeat IPC: 0.135275 cumulative IPC: 0.118546 (Simulation time: 2 hr 8 min 57 sec) 
Heartbeat CPU 0 instructions: 510000000 cycles: 2621262154 heartbeat IPC: 0.191203 cumulative IPC: 0.194563 (Simulation time: 2 hr 9 min 15 sec) 
Heartbeat CPU 2 instructions: 580000000 cycles: 2622593945 heartbeat IPC: 0.211876 cumulative IPC: 0.221155 (Simulation time: 2 hr 9 min 18 sec) 
*** Reached end of trace for Core: 1 Repeating trace: /data/behnam/ChampSim/tracer/behnam_trace/streaming_phase1_core1.trace.gz
Heartbeat CPU 1 instructions: 500000000 cycles: 2625422455 heartbeat IPC: 0.185663 cumulative IPC: 0.190446 (Simulation time: 2 hr 9 min 26 sec) 
Heartbeat CPU 3 instructions: 490000003 cycles: 2636154113 heartbeat IPC: 0.184347 cumulative IPC: 0.185877 (Simulation time: 2 hr 9 min 56 sec) 
Heartbeat CPU 5 instructions: 330000002 cycles: 2656714054 heartbeat IPC: 0.124223 cumulative IPC: 0.124214 (Simulation time: 2 hr 10 min 55 sec) 
Heartbeat CPU 0 instructions: 520000000 cycles: 2675549039 heartbeat IPC: 0.184207 cumulative IPC: 0.194353 (Simulation time: 2 hr 11 min 48 sec) 
Heartbeat CPU 1 instructions: 510000002 cycles: 2679156598 heartbeat IPC: 0.186101 cumulative IPC: 0.190358 (Simulation time: 2 hr 11 min 57 sec) 
Heartbeat CPU 2 instructions: 590000001 cycles: 2682729558 heartbeat IPC: 0.166291 cumulative IPC: 0.219925 (Simulation time: 2 hr 12 min 7 sec) 
Heartbeat CPU 6 instructions: 330000000 cycles: 2685027396 heartbeat IPC: 0.124132 cumulative IPC: 0.122904 (Simulation time: 2 hr 12 min 13 sec) 
*** Reached end of trace for Core: 3 Repeating trace: /data/behnam/ChampSim/tracer/behnam_trace/streaming_phase1_core3.trace.gz
Heartbeat CPU 3 instructions: 500000000 cycles: 2690794974 heartbeat IPC: 0.183013 cumulative IPC: 0.185819 (Simulation time: 2 hr 12 min 29 sec) 
Heartbeat CPU 7 instructions: 270000001 cycles: 2690858811 heartbeat IPC: 0.100647 cumulative IPC: 0.10034 (Simulation time: 2 hr 12 min 29 sec) 
Heartbeat CPU 4 instructions: 320000000 cycles: 2700123307 heartbeat IPC: 0.117502 cumulative IPC: 0.118513 (Simulation time: 2 hr 12 min 54 sec) 
Heartbeat CPU 0 instructions: 530000000 cycles: 2729889220 heartbeat IPC: 0.184026 cumulative IPC: 0.194147 (Simulation time: 2 hr 14 min 16 sec) 
Heartbeat CPU 1 instructions: 520000000 cycles: 2733287125 heartbeat IPC: 0.184739 cumulative IPC: 0.190247 (Simulation time: 2 hr 14 min 26 sec) 
Heartbeat CPU 5 instructions: 340000000 cycles: 2735609675 heartbeat IPC: 0.12675 cumulative IPC: 0.124287 (Simulation time: 2 hr 14 min 32 sec) 
Heartbeat CPU 3 instructions: 510000003 cycles: 2741887794 heartbeat IPC: 0.195722 cumulative IPC: 0.186003 (Simulation time: 2 hr 14 min 49 sec) 
*** Reached end of trace for Core: 2 Repeating trace: /data/behnam/ChampSim/tracer/behnam_trace/streaming_phase1_core2.trace.gz
Heartbeat CPU 2 instructions: 600000000 cycles: 2744890434 heartbeat IPC: 0.160873 cumulative IPC: 0.218588 (Simulation time: 2 hr 14 min 58 sec) 
Heartbeat CPU 6 instructions: 340000000 cycles: 2765615637 heartbeat IPC: 0.124088 cumulative IPC: 0.122938 (Simulation time: 2 hr 16 min 1 sec) 
Heartbeat CPU 0 instructions: 540000000 cycles: 2783795217 heartbeat IPC: 0.185508 cumulative IPC: 0.19398 (Simulation time: 2 hr 16 min 51 sec) 
Heartbeat CPU 1 instructions: 530000000 cycles: 2787108822 heartbeat IPC: 0.185799 cumulative IPC: 0.190161 (Simulation time: 2 hr 17 min 0 sec) 
Heartbeat CPU 2 instructions: 610000001 cycles: 2787737911 heartbeat IPC: 0.233386 cumulative IPC: 0.218815 (Simulation time: 2 hr 17 min 1 sec) 
Heartbeat CPU 7 instructions: 280000000 cycles: 2790755597 heartbeat IPC: 0.100103 cumulative IPC: 0.100331 (Simulation time: 2 hr 17 min 10 sec) 
Heartbeat CPU 4 instructions: 330000003 cycles: 2793171113 heartbeat IPC: 0.107472 cumulative IPC: 0.118145 (Simulation time: 2 hr 17 min 18 sec) 
Heartbeat CPU 3 instructions: 520000000 cycles: 2795954736 heartbeat IPC: 0.184956 cumulative IPC: 0.185983 (Simulation time: 2 hr 17 min 27 sec) 
Heartbeat CPU 5 instructions: 350000003 cycles: 2814534751 heartbeat IPC: 0.126702 cumulative IPC: 0.124354 (Simulation time: 2 hr 18 min 26 sec) 
Heartbeat CPU 2 instructions: 620000000 cycles: 2817082717 heartbeat IPC: 0.340776 cumulative IPC: 0.220086 (Simulation time: 2 hr 18 min 34 sec) 
Heartbeat CPU 0 instructions: 550000001 cycles: 2837573301 heartbeat IPC: 0.185949 cumulative IPC: 0.193828 (Simulation time: 2 hr 19 min 38 sec) 
Heartbeat CPU 1 instructions: 540000000 cycles: 2841109636 heartbeat IPC: 0.185182 cumulative IPC: 0.190067 (Simulation time: 2 hr 19 min 49 sec) 
Heartbeat CPU 2 instructions: 630000001 cycles: 2845476990 heartbeat IPC: 0.352184 cumulative IPC: 0.221404 (Simulation time: 2 hr 20 min 3 sec) 
Heartbeat CPU 6 instructions: 350000002 cycles: 2847600087 heartbeat IPC: 0.121974 cumulative IPC: 0.122911 (Simulation time: 2 hr 20 min 10 sec) 
Heartbeat CPU 3 instructions: 530000001 cycles: 2849801304 heartbeat IPC: 0.185713 cumulative IPC: 0.185978 (Simulation time: 2 hr 20 min 16 sec) 
Heartbeat CPU 4 instructions: 340000000 cycles: 2877192396 heartbeat IPC: 0.119017 cumulative IPC: 0.118171 (Simulation time: 2 hr 21 min 37 sec) 
Heartbeat CPU 2 instructions: 640000000 cycles: 2886874393 heartbeat IPC: 0.241561 cumulative IPC: 0.221693 (Simulation time: 2 hr 22 min 5 sec) 
Heartbeat CPU 0 instructions: 560000000 cycles: 2891887993 heartbeat IPC: 0.184112 cumulative IPC: 0.193645 (Simulation time: 2 hr 22 min 18 sec) 
Heartbeat CPU 7 instructions: 290000002 cycles: 2892680119 heartbeat IPC: 0.0981118 cumulative IPC: 0.100253 (Simulation time: 2 hr 22 min 21 sec) 
Heartbeat CPU 1 instructions: 550000001 cycles: 2895497532 heartbeat IPC: 0.183864 cumulative IPC: 0.18995 (Simulation time: 2 hr 22 min 28 sec) 
Heartbeat CPU 5 instructions: 360000000 cycles: 2895557652 heartbeat IPC: 0.123422 cumulative IPC: 0.124328 (Simulation time: 2 hr 22 min 28 sec) 
Heartbeat CPU 3 instructions: 540000000 cycles: 2903297093 heartbeat IPC: 0.186931 cumulative IPC: 0.185995 (Simulation time: 2 hr 22 min 52 sec) 
Heartbeat CPU 0 instructions: 570000002 cycles: 2922586029 heartbeat IPC: 0.325754 cumulative IPC: 0.195033 (Simulation time: 2 hr 23 min 51 sec) 
Heartbeat CPU 6 instructions: 360000000 cycles: 2929668086 heartbeat IPC: 0.12185 cumulative IPC: 0.122881 (Simulation time: 2 hr 24 min 11 sec) 
Heartbeat CPU 1 instructions: 560000000 cycles: 2950031232 heartbeat IPC: 0.183373 cumulative IPC: 0.189829 (Simulation time: 2 hr 25 min 8 sec) 
Heartbeat CPU 2 instructions: 650000001 cycles: 2950742397 heartbeat IPC: 0.156573 cumulative IPC: 0.220284 (Simulation time: 2 hr 25 min 10 sec) 
Heartbeat CPU 3 instructions: 550000001 cycles: 2957595952 heartbeat IPC: 0.184166 cumulative IPC: 0.185962 (Simulation time: 2 hr 25 min 28 sec) 
Heartbeat CPU 4 instructions: 350000001 cycles: 2969379006 heartbeat IPC: 0.108476 cumulative IPC: 0.11787 (Simulation time: 2 hr 26 min 0 sec) 
Heartbeat CPU 0 instructions: 580000000 cycles: 2973556831 heartbeat IPC: 0.196191 cumulative IPC: 0.195053 (Simulation time: 2 hr 26 min 12 sec) 
Heartbeat CPU 5 instructions: 370000001 cycles: 2977596021 heartbeat IPC: 0.121894 cumulative IPC: 0.124261 (Simulation time: 2 hr 26 min 23 sec) 
Heartbeat CPU 1 instructions: 570000002 cycles: 2988510725 heartbeat IPC: 0.259879 cumulative IPC: 0.19073 (Simulation time: 2 hr 26 min 59 sec) 
*** Reached end of trace for Core: 7 Repeating trace: /data/behnam/ChampSim/tracer/behnam_trace/cloud9_phase1_core3.trace.gz
Heartbeat CPU 7 instructions: 300000000 cycles: 2991982467 heartbeat IPC: 0.100703 cumulative IPC: 0.100268 (Simulation time: 2 hr 27 min 10 sec) 
Heartbeat CPU 2 instructions: 660000000 cycles: 3006846931 heartbeat IPC: 0.178239 cumulative IPC: 0.219499 (Simulation time: 2 hr 27 min 51 sec) 
Heartbeat CPU 6 instructions: 370000000 cycles: 3011796685 heartbeat IPC: 0.12176 cumulative IPC: 0.12285 (Simulation time: 2 hr 28 min 5 sec) 
Heartbeat CPU 3 instructions: 560000000 cycles: 3011867121 heartbeat IPC: 0.18426 cumulative IPC: 0.185931 (Simulation time: 2 hr 28 min 5 sec) 
Heartbeat CPU 0 instructions: 590000001 cycles: 3027970132 heartbeat IPC: 0.183779 cumulative IPC: 0.19485 (Simulation time: 2 hr 28 min 58 sec) 
Heartbeat CPU 2 instructions: 670000002 cycles: 3034093820 heartbeat IPC: 0.367014 cumulative IPC: 0.220824 (Simulation time: 2 hr 29 min 17 sec) 
Heartbeat CPU 1 instructions: 580000000 cycles: 3042500571 heartbeat IPC: 0.18522 cumulative IPC: 0.190633 (Simulation time: 2 hr 29 min 43 sec) 
Heartbeat CPU 4 instructions: 360000000 cycles: 3047395896 heartbeat IPC: 0.128177 cumulative IPC: 0.118134 (Simulation time: 2 hr 29 min 59 sec) 
Heartbeat CPU 5 instructions: 380000000 cycles: 3059476836 heartbeat IPC: 0.122129 cumulative IPC: 0.124204 (Simulation time: 2 hr 30 min 32 sec) 
Heartbeat CPU 3 instructions: 570000000 cycles: 3065908778 heartbeat IPC: 0.185042 cumulative IPC: 0.185916 (Simulation time: 2 hr 30 min 50 sec) 
Heartbeat CPU 2 instructions: 680000000 cycles: 3081231334 heartbeat IPC: 0.212145 cumulative IPC: 0.220691 (Simulation time: 2 hr 31 min 31 sec) 
*** Reached end of trace for Core: 0 Repeating trace: /data/behnam/ChampSim/tracer/behnam_trace/streaming_phase1_core0.trace.gz
Heartbeat CPU 0 instructions: 600000000 cycles: 3082821361 heartbeat IPC: 0.182311 cumulative IPC: 0.194627 (Simulation time: 2 hr 31 min 35 sec) 
Heartbeat CPU 7 instructions: 310000002 cycles: 3088128258 heartbeat IPC: 0.104009 cumulative IPC: 0.100384 (Simulation time: 2 hr 31 min 51 sec) 
Heartbeat CPU 6 instructions: 380000000 cycles: 3093812058 heartbeat IPC: 0.121928 cumulative IPC: 0.122826 (Simulation time: 2 hr 32 min 6 sec) 
Heartbeat CPU 1 instructions: 590000002 cycles: 3096931573 heartbeat IPC: 0.183719 cumulative IPC: 0.190511 (Simulation time: 2 hr 32 min 15 sec) 
Heartbeat CPU 4 instructions: 370000000 cycles: 3119936127 heartbeat IPC: 0.137855 cumulative IPC: 0.118592 (Simulation time: 2 hr 33 min 20 sec) 
Heartbeat CPU 3 instructions: 580000000 cycles: 3120446027 heartbeat IPC: 0.183361 cumulative IPC: 0.185871 (Simulation time: 2 hr 33 min 22 sec) 
Heartbeat CPU 0 instructions: 610000002 cycles: 3135026727 heartbeat IPC: 0.191551 cumulative IPC: 0.194576 (Simulation time: 2 hr 34 min 2 sec) 
Heartbeat CPU 5 instructions: 390000003 cycles: 3140345643 heartbeat IPC: 0.123657 cumulative IPC: 0.12419 (Simulation time: 2 hr 34 min 18 sec) 
Heartbeat CPU 2 instructions: 690000000 cycles: 3141224404 heartbeat IPC: 0.166686 cumulative IPC: 0.21966 (Simulation time: 2 hr 34 min 21 sec) 
*** Reached end of trace for Core: 1 Repeating trace: /data/behnam/ChampSim/tracer/behnam_trace/streaming_phase1_core1.trace.gz
Heartbeat CPU 1 instructions: 600000000 cycles: 3150642472 heartbeat IPC: 0.186182 cumulative IPC: 0.190437 (Simulation time: 2 hr 34 min 46 sec) 
Heartbeat CPU 3 instructions: 590000001 cycles: 3174503882 heartbeat IPC: 0.184987 cumulative IPC: 0.185856 (Simulation time: 2 hr 35 min 52 sec) 
Heartbeat CPU 6 instructions: 390000003 cycles: 3175731374 heartbeat IPC: 0.122071 cumulative IPC: 0.122806 (Simulation time: 2 hr 35 min 56 sec) 
Heartbeat CPU 7 instructions: 320000000 cycles: 3186219224 heartbeat IPC: 0.101946 cumulative IPC: 0.100433 (Simulation time: 2 hr 36 min 25 sec) 
Heartbeat CPU 0 instructions: 620000000 cycles: 3189195544 heartbeat IPC: 0.184608 cumulative IPC: 0.194406 (Simulation time: 2 hr 36 min 33 sec) 
Heartbeat CPU 4 instructions: 380000000 cycles: 3192543368 heartbeat IPC: 0.137727 cumulative IPC: 0.119027 (Simulation time: 2 hr 36 min 42 sec) 
*** Reached end of trace for Core: 2 Repeating trace: /data/behnam/ChampSim/tracer/behnam_trace/streaming_phase1_core2.trace.gz
Heartbeat CPU 2 instructions: 700000000 cycles: 3203079906 heartbeat IPC: 0.161667 cumulative IPC: 0.21854 (Simulation time: 2 hr 37 min 11 sec) 
Heartbeat CPU 1 instructions: 610000001 cycles: 3204332514 heartbeat IPC: 0.186254 cumulative IPC: 0.190367 (Simulation time: 2 hr 37 min 14 sec) 
*** Reached end of trace for Core: 5 Repeating trace: /data/behnam/ChampSim/tracer/behnam_trace/cloud9_phase1_core1.trace.gz
Heartbeat CPU 5 instructions: 400000000 cycles: 3221246755 heartbeat IPC: 0.123608 cumulative IPC: 0.124176 (Simulation time: 2 hr 38 min 5 sec) 
*** Reached end of trace for Core: 3 Repeating trace: /data/behnam/ChampSim/tracer/behnam_trace/streaming_phase1_core3.trace.gz
Heartbeat CPU 3 instructions: 600000000 cycles: 3229083209 heartbeat IPC: 0.18322 cumulative IPC: 0.185811 (Simulation time: 2 hr 38 min 26 sec) 
Heartbeat CPU 0 instructions: 630000001 cycles: 3243502005 heartbeat IPC: 0.18414 cumulative IPC: 0.194235 (Simulation time: 2 hr 39 min 5 sec) 
Heartbeat CPU 2 instructions: 710000000 cycles: 3245888982 heartbeat IPC: 0.233595 cumulative IPC: 0.218738 (Simulation time: 2 hr 39 min 11 sec) 
*** Reached end of trace for Core: 6 Repeating trace: /data/behnam/ChampSim/tracer/behnam_trace/cloud9_phase1_core2.trace.gz
Heartbeat CPU 6 instructions: 400000000 cycles: 3258410905 heartbeat IPC: 0.120949 cumulative IPC: 0.122759 (Simulation time: 2 hr 39 min 50 sec) 
Heartbeat CPU 1 instructions: 620000000 cycles: 3258440492 heartbeat IPC: 0.184816 cumulative IPC: 0.190275 (Simulation time: 2 hr 39 min 50 sec) 
Heartbeat CPU 2 instructions: 720000000 cycles: 3274671666 heartbeat IPC: 0.347431 cumulative IPC: 0.219869 (Simulation time: 2 hr 40 min 40 sec) 
Heartbeat CPU 3 instructions: 610000001 cycles: 3280215444 heartbeat IPC: 0.195571 cumulative IPC: 0.185963 (Simulation time: 2 hr 40 min 58 sec) 
Heartbeat CPU 7 instructions: 330000000 cycles: 3287198871 heartbeat IPC: 0.0990299 cumulative IPC: 0.100389 (Simulation time: 2 hr 41 min 19 sec) 
Heartbeat CPU 4 instructions: 390000001 cycles: 3289641885 heartbeat IPC: 0.102988 cumulative IPC: 0.118554 (Simulation time: 2 hr 41 min 27 sec) 
Heartbeat CPU 0 instructions: 640000000 cycles: 3297394573 heartbeat IPC: 0.185554 cumulative IPC: 0.194093 (Simulation time: 2 hr 41 min 51 sec) 
Heartbeat CPU 5 instructions: 410000000 cycles: 3301458076 heartbeat IPC: 0.124671 cumulative IPC: 0.124188 (Simulation time: 2 hr 42 min 4 sec) 
Heartbeat CPU 2 instructions: 730000003 cycles: 3302700254 heartbeat IPC: 0.356779 cumulative IPC: 0.221031 (Simulation time: 2 hr 42 min 8 sec) 
Heartbeat CPU 1 instructions: 630000002 cycles: 3312192114 heartbeat IPC: 0.186041 cumulative IPC: 0.190206 (Simulation time: 2 hr 42 min 38 sec) 
Heartbeat CPU 3 instructions: 620000000 cycles: 3334180635 heartbeat IPC: 0.185305 cumulative IPC: 0.185953 (Simulation time: 2 hr 43 min 41 sec) 
Heartbeat CPU 6 instructions: 410000000 cycles: 3338757925 heartbeat IPC: 0.12446 cumulative IPC: 0.1228 (Simulation time: 2 hr 43 min 54 sec) 
Heartbeat CPU 2 instructions: 740000000 cycles: 3344082277 heartbeat IPC: 0.241651 cumulative IPC: 0.221286 (Simulation time: 2 hr 44 min 9 sec) 
Heartbeat CPU 0 instructions: 650000000 cycles: 3351045924 heartbeat IPC: 0.186389 cumulative IPC: 0.193969 (Simulation time: 2 hr 44 min 28 sec) 
Heartbeat CPU 1 instructions: 640000000 cycles: 3366066205 heartbeat IPC: 0.185618 cumulative IPC: 0.190133 (Simulation time: 2 hr 45 min 9 sec) 
Heartbeat CPU 5 instructions: 420000000 cycles: 3381840447 heartbeat IPC: 0.124405 cumulative IPC: 0.124193 (Simulation time: 2 hr 45 min 52 sec) 
Heartbeat CPU 7 instructions: 340000000 cycles: 3386740011 heartbeat IPC: 0.100461 cumulative IPC: 0.100392 (Simulation time: 2 hr 46 min 6 sec) 
Heartbeat CPU 3 instructions: 630000000 cycles: 3387864732 heartbeat IPC: 0.186275 cumulative IPC: 0.185958 (Simulation time: 2 hr 46 min 9 sec) 
*** Reached end of trace for Core: 4 Repeating trace: /data/behnam/ChampSim/tracer/behnam_trace/cloud9_phase1_core0.trace.gz
Heartbeat CPU 4 instructions: 400000000 cycles: 3388195469 heartbeat IPC: 0.101468 cumulative IPC: 0.118057 (Simulation time: 2 hr 46 min 10 sec) 
Heartbeat CPU 0 instructions: 660000000 cycles: 3405231014 heartbeat IPC: 0.184553 cumulative IPC: 0.193819 (Simulation time: 2 hr 46 min 59 sec) 
Heartbeat CPU 2 instructions: 750000001 cycles: 3407927774 heartbeat IPC: 0.156628 cumulative IPC: 0.220075 (Simulation time: 2 hr 47 min 7 sec) 
Heartbeat CPU 6 instructions: 420000000 cycles: 3419392375 heartbeat IPC: 0.124016 cumulative IPC: 0.122829 (Simulation time: 2 hr 47 min 44 sec) 
Heartbeat CPU 1 instructions: 650000002 cycles: 3420364911 heartbeat IPC: 0.184166 cumulative IPC: 0.190038 (Simulation time: 2 hr 47 min 47 sec) 
Heartbeat CPU 0 instructions: 670000001 cycles: 3435867740 heartbeat IPC: 0.326406 cumulative IPC: 0.195002 (Simulation time: 2 hr 48 min 33 sec) 
Heartbeat CPU 3 instructions: 640000000 cycles: 3441299885 heartbeat IPC: 0.187143 cumulative IPC: 0.185976 (Simulation time: 2 hr 48 min 49 sec) 
Heartbeat CPU 4 instructions: 410000001 cycles: 3461992059 heartbeat IPC: 0.135508 cumulative IPC: 0.118429 (Simulation time: 2 hr 49 min 51 sec) 
Heartbeat CPU 5 instructions: 430000002 cycles: 3462318330 heartbeat IPC: 0.124258 cumulative IPC: 0.124194 (Simulation time: 2 hr 49 min 52 sec) 
Heartbeat CPU 2 instructions: 760000000 cycles: 3464023361 heartbeat IPC: 0.178267 cumulative IPC: 0.219398 (Simulation time: 2 hr 49 min 56 sec) 
Heartbeat CPU 1 instructions: 660000000 cycles: 3474961423 heartbeat IPC: 0.183162 cumulative IPC: 0.18993 (Simulation time: 2 hr 50 min 29 sec) 
Heartbeat CPU 7 instructions: 350000002 cycles: 3486720013 heartbeat IPC: 0.10002 cumulative IPC: 0.100381 (Simulation time: 2 hr 51 min 9 sec) 
Heartbeat CPU 0 instructions: 680000000 cycles: 3486911555 heartbeat IPC: 0.19591 cumulative IPC: 0.195015 (Simulation time: 2 hr 51 min 10 sec) 
Heartbeat CPU 2 instructions: 770000002 cycles: 3491443526 heartbeat IPC: 0.364695 cumulative IPC: 0.220539 (Simulation time: 2 hr 51 min 25 sec) 
Heartbeat CPU 3 instructions: 650000002 cycles: 3495731193 heartbeat IPC: 0.183718 cumulative IPC: 0.185941 (Simulation time: 2 hr 51 min 38 sec) 
Heartbeat CPU 6 instructions: 430000000 cycles: 3499976865 heartbeat IPC: 0.124093 cumulative IPC: 0.122858 (Simulation time: 2 hr 51 min 52 sec) 
Heartbeat CPU 1 instructions: 670000000 cycles: 3513709913 heartbeat IPC: 0.258075 cumulative IPC: 0.190682 (Simulation time: 2 hr 52 min 38 sec) 
Heartbeat CPU 2 instructions: 780000000 cycles: 3539031595 heartbeat IPC: 0.210137 cumulative IPC: 0.220399 (Simulation time: 2 hr 53 min 48 sec) 
Heartbeat CPU 5 instructions: 440000000 cycles: 3541344861 heartbeat IPC: 0.12654 cumulative IPC: 0.124247 (Simulation time: 2 hr 53 min 54 sec) 
Heartbeat CPU 0 instructions: 690000003 cycles: 3541367094 heartbeat IPC: 0.183636 cumulative IPC: 0.19484 (Simulation time: 2 hr 53 min 54 sec) 
Heartbeat CPU 4 instructions: 420000000 cycles: 3547389595 heartbeat IPC: 0.117099 cumulative IPC: 0.118397 (Simulation time: 2 hr 54 min 10 sec) 
Heartbeat CPU 3 instructions: 660000000 cycles: 3550046781 heartbeat IPC: 0.184109 cumulative IPC: 0.185913 (Simulation time: 2 hr 54 min 18 sec) 
Heartbeat CPU 1 instructions: 680000000 cycles: 3567742658 heartbeat IPC: 0.185073 cumulative IPC: 0.190597 (Simulation time: 2 hr 55 min 8 sec) 
Heartbeat CPU 6 instructions: 440000000 cycles: 3580689228 heartbeat IPC: 0.123897 cumulative IPC: 0.122881 (Simulation time: 2 hr 55 min 43 sec) 
Heartbeat CPU 7 instructions: 360000000 cycles: 3588346009 heartbeat IPC: 0.0984 cumulative IPC: 0.100325 (Simulation time: 2 hr 56 min 5 sec) 
*** Reached end of trace for Core: 0 Repeating trace: /data/behnam/ChampSim/tracer/behnam_trace/streaming_phase1_core0.trace.gz
Heartbeat CPU 0 instructions: 700000000 cycles: 3596249774 heartbeat IPC: 0.182207 cumulative IPC: 0.194647 (Simulation time: 2 hr 56 min 27 sec) 
Heartbeat CPU 2 instructions: 790000000 cycles: 3599095005 heartbeat IPC: 0.166491 cumulative IPC: 0.2195 (Simulation time: 2 hr 56 min 35 sec) 
Heartbeat CPU 3 instructions: 670000001 cycles: 3604131335 heartbeat IPC: 0.184896 cumulative IPC: 0.185898 (Simulation time: 2 hr 56 min 49 sec) 
Heartbeat CPU 5 instructions: 450000000 cycles: 3620339634 heartbeat IPC: 0.126591 cumulative IPC: 0.124298 (Simulation time: 2 hr 57 min 34 sec) 
Heartbeat CPU 1 instructions: 690000002 cycles: 3622156795 heartbeat IPC: 0.183776 cumulative IPC: 0.190494 (Simulation time: 2 hr 57 min 39 sec) 
Heartbeat CPU 4 instructions: 430000002 cycles: 3640556867 heartbeat IPC: 0.107334 cumulative IPC: 0.118114 (Simulation time: 2 hr 58 min 30 sec) 
Heartbeat CPU 0 instructions: 710000000 cycles: 3648464786 heartbeat IPC: 0.191516 cumulative IPC: 0.194602 (Simulation time: 2 hr 58 min 52 sec) 
Heartbeat CPU 3 instructions: 680000000 cycles: 3658675503 heartbeat IPC: 0.183338 cumulative IPC: 0.18586 (Simulation time: 2 hr 59 min 21 sec) 
*** Reached end of trace for Core: 2 Repeating trace: /data/behnam/ChampSim/tracer/behnam_trace/streaming_phase1_core2.trace.gz
Heartbeat CPU 2 instructions: 800000000 cycles: 3660808499 heartbeat IPC: 0.162039 cumulative IPC: 0.218531 (Simulation time: 2 hr 59 min 27 sec) 
Heartbeat CPU 6 instructions: 450000003 cycles: 3662626334 heartbeat IPC: 0.122045 cumulative IPC: 0.122863 (Simulation time: 2 hr 59 min 33 sec) 
*** Reached end of trace for Core: 1 Repeating trace: /data/behnam/ChampSim/tracer/behnam_trace/streaming_phase1_core1.trace.gz
Heartbeat CPU 1 instructions: 700000000 cycles: 3676015583 heartbeat IPC: 0.185671 cumulative IPC: 0.190424 (Simulation time: 3 hr 0 min 15 sec) 
Heartbeat CPU 7 instructions: 370000003 cycles: 3687611536 heartbeat IPC: 0.10074 cumulative IPC: 0.100336 (Simulation time: 3 hr 0 min 48 sec) 
Heartbeat CPU 5 instructions: 460000000 cycles: 3701344823 heartbeat IPC: 0.123449 cumulative IPC: 0.124279 (Simulation time: 3 hr 1 min 27 sec) 
Heartbeat CPU 0 instructions: 720000000 cycles: 3702766448 heartbeat IPC: 0.184156 cumulative IPC: 0.194449 (Simulation time: 3 hr 1 min 31 sec) 
Heartbeat CPU 2 instructions: 810000002 cycles: 3704117489 heartbeat IPC: 0.230899 cumulative IPC: 0.218676 (Simulation time: 3 hr 1 min 34 sec) 
Heartbeat CPU 3 instructions: 690000000 cycles: 3712915258 heartbeat IPC: 0.184367 cumulative IPC: 0.185838 (Simulation time: 3 hr 2 min 2 sec) 
Heartbeat CPU 4 instructions: 440000000 cycles: 3724094826 heartbeat IPC: 0.119706 cumulative IPC: 0.11815 (Simulation time: 3 hr 2 min 37 sec) 
Heartbeat CPU 1 instructions: 710000001 cycles: 3729813233 heartbeat IPC: 0.185882 cumulative IPC: 0.190358 (Simulation time: 3 hr 2 min 55 sec) 
Heartbeat CPU 2 instructions: 820000000 cycles: 3733065813 heartbeat IPC: 0.345443 cumulative IPC: 0.219659 (Simulation time: 3 hr 3 min 6 sec) 
Heartbeat CPU 6 instructions: 460000000 cycles: 3744595437 heartbeat IPC: 0.121997 cumulative IPC: 0.122844 (Simulation time: 3 hr 3 min 42 sec) 
Heartbeat CPU 0 instructions: 730000003 cycles: 3757170454 heartbeat IPC: 0.18381 cumulative IPC: 0.194295 (Simulation time: 3 hr 4 min 21 sec) 
Heartbeat CPU 2 instructions: 830000002 cycles: 3761450225 heartbeat IPC: 0.352306 cumulative IPC: 0.22066 (Simulation time: 3 hr 4 min 35 sec) 
*** Reached end of trace for Core: 3 Repeating trace: /data/behnam/ChampSim/tracer/behnam_trace/streaming_phase1_core3.trace.gz
Heartbeat CPU 3 instructions: 700000000 cycles: 3767646753 heartbeat IPC: 0.18271 cumulative IPC: 0.185792 (Simulation time: 3 hr 4 min 54 sec) 
Heartbeat CPU 5 instructions: 470000000 cycles: 3783381185 heartbeat IPC: 0.121897 cumulative IPC: 0.124228 (Simulation time: 3 hr 5 min 41 sec) 
Heartbeat CPU 1 instructions: 720000000 cycles: 3783973681 heartbeat IPC: 0.184637 cumulative IPC: 0.190276 (Simulation time: 3 hr 5 min 43 sec) 
Heartbeat CPU 7 instructions: 380000000 cycles: 3787680649 heartbeat IPC: 0.0999309 cumulative IPC: 0.100325 (Simulation time: 3 hr 5 min 53 sec) 
Heartbeat CPU 2 instructions: 840000000 cycles: 3803221264 heartbeat IPC: 0.2394 cumulative IPC: 0.220865 (Simulation time: 3 hr 6 min 38 sec) 
Heartbeat CPU 0 instructions: 740000000 cycles: 3811095458 heartbeat IPC: 0.185443 cumulative IPC: 0.19417 (Simulation time: 3 hr 6 min 59 sec) 
Heartbeat CPU 4 instructions: 450000000 cycles: 3816300350 heartbeat IPC: 0.108453 cumulative IPC: 0.117915 (Simulation time: 3 hr 7 min 14 sec) 
Heartbeat CPU 3 instructions: 710000002 cycles: 3818704492 heartbeat IPC: 0.195857 cumulative IPC: 0.185927 (Simulation time: 3 hr 7 min 20 sec) 
Heartbeat CPU 6 instructions: 470000002 cycles: 3826791085 heartbeat IPC: 0.121661 cumulative IPC: 0.122818 (Simulation time: 3 hr 7 min 43 sec) 
Heartbeat CPU 1 instructions: 730000001 cycles: 3837685079 heartbeat IPC: 0.18618 cumulative IPC: 0.190219 (Simulation time: 3 hr 8 min 13 sec) 
Heartbeat CPU 0 instructions: 750000003 cycles: 3864741824 heartbeat IPC: 0.186406 cumulative IPC: 0.194062 (Simulation time: 3 hr 9 min 28 sec) 
Heartbeat CPU 5 instructions: 480000000 cycles: 3865199994 heartbeat IPC: 0.122221 cumulative IPC: 0.124185 (Simulation time: 3 hr 9 min 29 sec) 
Heartbeat CPU 2 instructions: 850000003 cycles: 3867085544 heartbeat IPC: 0.156582 cumulative IPC: 0.219804 (Simulation time: 3 hr 9 min 34 sec) 
Heartbeat CPU 3 instructions: 720000000 cycles: 3872614058 heartbeat IPC: 0.185496 cumulative IPC: 0.185921 (Simulation time: 3 hr 9 min 50 sec) 
Heartbeat CPU 7 instructions: 390000003 cycles: 3889427568 heartbeat IPC: 0.0982831 cumulative IPC: 0.100272 (Simulation time: 3 hr 10 min 36 sec) 
Heartbeat CPU 1 instructions: 740000000 cycles: 3891537950 heartbeat IPC: 0.185691 cumulative IPC: 0.190156 (Simulation time: 3 hr 10 min 42 sec) 
Heartbeat CPU 4 instructions: 460000000 cycles: 3894302271 heartbeat IPC: 0.128202 cumulative IPC: 0.118121 (Simulation time: 3 hr 10 min 49 sec) 
Heartbeat CPU 6 instructions: 480000000 cycles: 3908744424 heartbeat IPC: 0.122021 cumulative IPC: 0.122802 (Simulation time: 3 hr 11 min 32 sec) 
Heartbeat CPU 0 instructions: 760000000 cycles: 3918994904 heartbeat IPC: 0.184321 cumulative IPC: 0.193927 (Simulation time: 3 hr 12 min 1 sec) 
Heartbeat CPU 2 instructions: 860000000 cycles: 3923102842 heartbeat IPC: 0.178516 cumulative IPC: 0.219214 (Simulation time: 3 hr 12 min 12 sec) 
Heartbeat CPU 3 instructions: 730000002 cycles: 3926328863 heartbeat IPC: 0.186168 cumulative IPC: 0.185924 (Simulation time: 3 hr 12 min 21 sec) 
Heartbeat CPU 1 instructions: 750000003 cycles: 3945895124 heartbeat IPC: 0.183968 cumulative IPC: 0.190071 (Simulation time: 3 hr 13 min 32 sec) 
Heartbeat CPU 5 instructions: 490000001 cycles: 3946100721 heartbeat IPC: 0.123608 cumulative IPC: 0.124173 (Simulation time: 3 hr 13 min 33 sec) 
Heartbeat CPU 0 instructions: 770000002 cycles: 3950047386 heartbeat IPC: 0.322036 cumulative IPC: 0.194934 (Simulation time: 3 hr 13 min 46 sec) 
Heartbeat CPU 2 instructions: 870000003 cycles: 3950420520 heartbeat IPC: 0.366063 cumulative IPC: 0.22023 (Simulation time: 3 hr 13 min 47 sec) 
Heartbeat CPU 4 instructions: 470000003 cycles: 3966908326 heartbeat IPC: 0.13773 cumulative IPC: 0.11848 (Simulation time: 3 hr 14 min 38 sec) 
Heartbeat CPU 3 instructions: 740000000 cycles: 3979702826 heartbeat IPC: 0.187357 cumulative IPC: 0.185944 (Simulation time: 3 hr 15 min 15 sec) 
[...]
LLC WRITEBACK ACCESS:    5618562  HIT:    5603250  MISS:      15312

CPU 5 cumulative IPC: 0.124149 instructions: 1237825125 cycles: 9970493700
L1D TOTAL     ACCESS:  194737616  HIT:  192157249  MISS:    2580367
L1D LOAD      ACCESS:  119814607  HIT:  117269550  MISS:    2545057
L1D RFO       ACCESS:   74923009  HIT:   74887699  MISS:      35310
L1D PREFETCH  ACCESS:          0  HIT:          0  MISS:          0
L1D WRITEBACK ACCESS:          0  HIT:          0  MISS:          0
L1I TOTAL     ACCESS:  327809233  HIT:  327808512  MISS:        721
L1I LOAD      ACCESS:  327809233  HIT:  327808512  MISS:        721
L1I RFO       ACCESS:          0  HIT:          0  MISS:          0
L1I PREFETCH  ACCESS:          0  HIT:          0  MISS:          0
L1I WRITEBACK ACCESS:          0  HIT:          0  MISS:          0
L2C TOTAL     ACCESS:    3963319  HIT:    1562739  MISS:    2400580
L2C LOAD      ACCESS:    2545778  HIT:     178270  MISS:    2367508
L2C RFO       ACCESS:      35310  HIT:       2936  MISS:      32374
L2C PREFETCH  ACCESS:          0  HIT:          0  MISS:          0
L2C WRITEBACK ACCESS:    1382231  HIT:    1381533  MISS:        698
LLC TOTAL     ACCESS:    3727355  HIT:    1937031  MISS:    1790324
LLC LOAD      ACCESS:    2367508  HIT:     608927  MISS:    1758581
LLC RFO       ACCESS:      32374  HIT:       3140  MISS:      29234
LLC PREFETCH  ACCESS:          0  HIT:          0  MISS:          0
LLC WRITEBACK ACCESS:    1327473  HIT:    1324964  MISS:       2509

CPU 6 cumulative IPC: 0.122757 instructions: 1223943274 cycles: 9970493701
L1D TOTAL     ACCESS:  199424456  HIT:  195555041  MISS:    3869415
L1D LOAD      ACCESS:  124312725  HIT:  120446776  MISS:    3865949
L1D RFO       ACCESS:   75111731  HIT:   75108265  MISS:       3466
L1D PREFETCH  ACCESS:          0  HIT:          0  MISS:          0
L1D WRITEBACK ACCESS:          0  HIT:          0  MISS:          0
L1I TOTAL     ACCESS:  318342673  HIT:  318341705  MISS:        968
L1I LOAD      ACCESS:  318342673  HIT:  318341705  MISS:        968
L1I RFO       ACCESS:          0  HIT:          0  MISS:          0
L1I PREFETCH  ACCESS:          0  HIT:          0  MISS:          0
L1I WRITEBACK ACCESS:          0  HIT:          0  MISS:          0
L2C TOTAL     ACCESS:    5082869  HIT:    1718016  MISS:    3364853
L2C LOAD      ACCESS:    3866917  HIT:     506168  MISS:    3360749
L2C RFO       ACCESS:       3466  HIT:        497  MISS:       2969
L2C PREFETCH  ACCESS:          0  HIT:          0  MISS:          0
L2C WRITEBACK ACCESS:    1212486  HIT:    1211351  MISS:       1135
LLC TOTAL     ACCESS:    4531938  HIT:    2229215  MISS:    2302723
LLC LOAD      ACCESS:    3360738  HIT:    1061930  MISS:    2298808
LLC RFO       ACCESS:       2969  HIT:        297  MISS:       2672
LLC PREFETCH  ACCESS:          0  HIT:          0  MISS:          0
LLC WRITEBACK ACCESS:    1168231  HIT:    1166988  MISS:       1243

CPU 7 cumulative IPC: 0.100296 instructions: 1000000003 cycles: 9970493701
L1D TOTAL     ACCESS:  170354747  HIT:  162641125  MISS:    7713622
L1D LOAD      ACCESS:  101840636  HIT:   94489854  MISS:    7350782
L1D RFO       ACCESS:   68514111  HIT:   68151271  MISS:     362840
L1D PREFETCH  ACCESS:          0  HIT:          0  MISS:          0
L1D WRITEBACK ACCESS:          0  HIT:          0  MISS:          0
L1I TOTAL     ACCESS:  284992259  HIT:  284909245  MISS:      83014
L1I LOAD      ACCESS:  284992259  HIT:  284909245  MISS:      83014
L1I RFO       ACCESS:          0  HIT:          0  MISS:          0
L1I PREFETCH  ACCESS:          0  HIT:          0  MISS:          0
L1I WRITEBACK ACCESS:          0  HIT:          0  MISS:          0
L2C TOTAL     ACCESS:   12579294  HIT:    6584062  MISS:    5995232
L2C LOAD      ACCESS:    7433783  HIT:    1746250  MISS:    5687533
L2C RFO       ACCESS:     362834  HIT:      65043  MISS:     297791
L2C PREFETCH  ACCESS:          0  HIT:          0  MISS:          0
L2C WRITEBACK ACCESS:    4782677  HIT:    4772769  MISS:       9908
LLC TOTAL     ACCESS:    9601094  HIT:    7486281  MISS:    2114813
LLC LOAD      ACCESS:    5687531  HIT:    3720134  MISS:    1967397
LLC RFO       ACCESS:     297791  HIT:     151259  MISS:     146532
LLC PREFETCH  ACCESS:          0  HIT:          0  MISS:          0
LLC WRITEBACK ACCESS:    3615772  HIT:    3614888  MISS:        884

Region of Interest Statistics

CPU 0 cumulative IPC: 0.194653 instructions: 1000000001 cycles: 5137344077
L1D TOTAL     ACCESS:  158803615  HIT:  139793047  MISS:   19010568
L1D LOAD      ACCESS:   91837233  HIT:   77969954  MISS:   13867279
L1D RFO       ACCESS:   66966382  HIT:   61823093  MISS:    5143289
L1D PREFETCH  ACCESS:          0  HIT:          0  MISS:          0
L1D WRITEBACK ACCESS:          0  HIT:          0  MISS:          0
L1D PREFETCH  REQUESTED:          0  ISSUED:          0  USEFUL:          0  USELESS:          0
L1I TOTAL     ACCESS:  219036021  HIT:  180236659  MISS:   38799362
L1I LOAD      ACCESS:  219036021  HIT:  180236659  MISS:   38799362
L1I RFO       ACCESS:          0  HIT:          0  MISS:          0
L1I PREFETCH  ACCESS:          0  HIT:          0  MISS:          0
L1I WRITEBACK ACCESS:          0  HIT:          0  MISS:          0
L1I PREFETCH  REQUESTED:          0  ISSUED:          0  USEFUL:          0  USELESS:          0
L2C TOTAL     ACCESS:   65027910  HIT:   57102331  MISS:    7925579
L2C LOAD      ACCESS:   52665597  HIT:   47022115  MISS:    5643482
L2C RFO       ACCESS:    5140589  HIT:    2911751  MISS:    2228838
L2C PREFETCH  ACCESS:          0  HIT:          0  MISS:          0
L2C WRITEBACK ACCESS:    7221724  HIT:    7168465  MISS:      53259
L2C PREFETCH  REQUESTED:          0  ISSUED:          0  USEFUL:          0  USELESS:          0
LLC TOTAL     ACCESS:   10690068  HIT:    7075764  MISS:    3614304
LLC LOAD      ACCESS:    5643460  HIT:    2790887  MISS:    2852573
LLC RFO       ACCESS:    2228775  HIT:    1467660  MISS:     761115
LLC PREFETCH  ACCESS:          0  HIT:          0  MISS:          0
LLC WRITEBACK ACCESS:    2817833  HIT:    2817217  MISS:        616
LLC PREFETCH  REQUESTED:          0  ISSUED:          0  USEFUL:          0  USELESS:          0
Major fault: 0 Minor fault: 17973

CPU 1 cumulative IPC: 0.190423 instructions: 1000000000 cycles: 5251471956
L1D TOTAL     ACCESS:  162938217  HIT:  143831248  MISS:   19106969
L1D LOAD      ACCESS:   93419412  HIT:   79505101  MISS:   13914311
L1D RFO       ACCESS:   69518805  HIT:   64326147  MISS:    5192658
L1D PREFETCH  ACCESS:          0  HIT:          0  MISS:          0
L1D WRITEBACK ACCESS:          0  HIT:          0  MISS:          0
L1D PREFETCH  REQUESTED:          0  ISSUED:          0  USEFUL:          0  USELESS:          0
L1I TOTAL     ACCESS:  221316857  HIT:  181381916  MISS:   39934941
L1I LOAD      ACCESS:  221316857  HIT:  181381916  MISS:   39934941
L1I RFO       ACCESS:          0  HIT:          0  MISS:          0
L1I PREFETCH  ACCESS:          0  HIT:          0  MISS:          0
L1I WRITEBACK ACCESS:          0  HIT:          0  MISS:          0
L1I PREFETCH  REQUESTED:          0  ISSUED:          0  USEFUL:          0  USELESS:          0
L2C TOTAL     ACCESS:   66293497  HIT:   58497725  MISS:    7795772
L2C LOAD      ACCESS:   53848296  HIT:   48304381  MISS:    5543915
L2C RFO       ACCESS:    5190463  HIT:    3010196  MISS:    2180267
L2C PREFETCH  ACCESS:          0  HIT:          0  MISS:          0
L2C WRITEBACK ACCESS:    7254738  HIT:    7183148  MISS:      71590
L2C PREFETCH  REQUESTED:          0  ISSUED:          0  USEFUL:          0  USELESS:          0
LLC TOTAL     ACCESS:   10520062  HIT:    7243112  MISS:    3276950
LLC LOAD      ACCESS:    5543878  HIT:    2959738  MISS:    2584140
LLC RFO       ACCESS:    2180237  HIT:    1488052  MISS:     692185
LLC PREFETCH  ACCESS:          0  HIT:          0  MISS:          0
LLC WRITEBACK ACCESS:    2795947  HIT:    2795322  MISS:        625
LLC PREFETCH  REQUESTED:          0  ISSUED:          0  USEFUL:          0  USELESS:          0
Major fault: 0 Minor fault: 17503

CPU 2 cumulative IPC: 0.218455 instructions: 1000000000 cycles: 4577605017
L1D TOTAL     ACCESS:  122212923  HIT:  106759729  MISS:   15453194
L1D LOAD      ACCESS:   78529534  HIT:   66426835  MISS:   12102699
L1D RFO       ACCESS:   43683389  HIT:   40332894  MISS:    3350495
L1D PREFETCH  ACCESS:          0  HIT:          0  MISS:          0
L1D WRITEBACK ACCESS:          0  HIT:          0  MISS:          0
L1D PREFETCH  REQUESTED:          0  ISSUED:          0  USEFUL:          0  USELESS:          0
L1I TOTAL     ACCESS:  197112579  HIT:  175682219  MISS:   21430360
L1I LOAD      ACCESS:  197112579  HIT:  175682219  MISS:   21430360
L1I RFO       ACCESS:          0  HIT:          0  MISS:          0
L1I PREFETCH  ACCESS:          0  HIT:          0  MISS:          0
L1I WRITEBACK ACCESS:          0  HIT:          0  MISS:          0
L1I PREFETCH  REQUESTED:          0  ISSUED:          0  USEFUL:          0  USELESS:          0
L2C TOTAL     ACCESS:   42612720  HIT:   35355864  MISS:    7256856
L2C LOAD      ACCESS:   33531316  HIT:   27344121  MISS:    6187195
L2C RFO       ACCESS:    3349485  HIT:    2316702  MISS:    1032783
L2C PREFETCH  ACCESS:          0  HIT:          0  MISS:          0
L2C WRITEBACK ACCESS:    5731919  HIT:    5695041  MISS:      36878
L2C PREFETCH  REQUESTED:          0  ISSUED:          0  USEFUL:          0  USELESS:          0
LLC TOTAL     ACCESS:    9049856  HIT:    4644389  MISS:    4405467
LLC LOAD      ACCESS:    6187113  HIT:    2159642  MISS:    4027471
LLC RFO       ACCESS:    1032696  HIT:     655637  MISS:     377059
LLC PREFETCH  ACCESS:          0  HIT:          0  MISS:          0
LLC WRITEBACK ACCESS:    1830047  HIT:    1829110  MISS:        937
LLC PREFETCH  REQUESTED:          0  ISSUED:          0  USEFUL:          0  USELESS:          0
Major fault: 0 Minor fault: 15290

CPU 3 cumulative IPC: 0.185803 instructions: 1000000002 cycles: 5382035507
L1D TOTAL     ACCESS:  167665797  HIT:  147944880  MISS:   19720917
L1D LOAD      ACCESS:   96057898  HIT:   81822002  MISS:   14235896
L1D RFO       ACCESS:   71607899  HIT:   66122878  MISS:    5485021
L1D PREFETCH  ACCESS:          0  HIT:          0  MISS:          0
L1D WRITEBACK ACCESS:          0  HIT:          0  MISS:          0
L1D PREFETCH  REQUESTED:          0  ISSUED:          0  USEFUL:          0  USELESS:          0
L1I TOTAL     ACCESS:  223063675  HIT:  181706147  MISS:   41357528
L1I LOAD      ACCESS:  223063675  HIT:  181706147  MISS:   41357528
L1I RFO       ACCESS:          0  HIT:          0  MISS:          0
L1I PREFETCH  ACCESS:          0  HIT:          0  MISS:          0
L1I WRITEBACK ACCESS:          0  HIT:          0  MISS:          0
L1I PREFETCH  REQUESTED:          0  ISSUED:          0  USEFUL:          0  USELESS:          0
L2C TOTAL     ACCESS:   68672851  HIT:   60785204  MISS:    7887647
L2C LOAD      ACCESS:   55592868  HIT:   50148396  MISS:    5444472
L2C RFO       ACCESS:    5482334  HIT:    3100008  MISS:    2382326
L2C PREFETCH  ACCESS:          0  HIT:          0  MISS:          0
L2C WRITEBACK ACCESS:    7597649  HIT:    7536800  MISS:      60849
L2C PREFETCH  REQUESTED:          0  ISSUED:          0  USEFUL:          0  USELESS:          0
LLC TOTAL     ACCESS:   10816726  HIT:    7461226  MISS:    3355500
LLC LOAD      ACCESS:    5444444  HIT:    2935578  MISS:    2508866
LLC RFO       ACCESS:    2382286  HIT:    1536439  MISS:     845847
LLC PREFETCH  ACCESS:          0  HIT:          0  MISS:          0
LLC WRITEBACK ACCESS:    2989996  HIT:    2989209  MISS:        787
LLC PREFETCH  REQUESTED:          0  ISSUED:          0  USEFUL:          0  USELESS:          0
Major fault: 0 Minor fault: 17867

CPU 4 cumulative IPC: 0.118069 instructions: 1000000000 cycles: 8469610915
L1D TOTAL     ACCESS:  168166792  HIT:  156286311  MISS:   11880481
L1D LOAD      ACCESS:  101539980  HIT:   92244970  MISS:    9295010
L1D RFO       ACCESS:   66626812  HIT:   64041341  MISS:    2585471
L1D PREFETCH  ACCESS:          0  HIT:          0  MISS:          0
L1D WRITEBACK ACCESS:          0  HIT:          0  MISS:          0
L1D PREFETCH  REQUESTED:          0  ISSUED:          0  USEFUL:          0  USELESS:          0
L1I TOTAL     ACCESS:  262883602  HIT:  262666927  MISS:     216675
L1I LOAD      ACCESS:  262883602  HIT:  262666927  MISS:     216675
L1I RFO       ACCESS:          0  HIT:          0  MISS:          0
L1I PREFETCH  ACCESS:          0  HIT:          0  MISS:          0
L1I WRITEBACK ACCESS:          0  HIT:          0  MISS:          0
L1I PREFETCH  REQUESTED:          0  ISSUED:          0  USEFUL:          0  USELESS:          0
L2C TOTAL     ACCESS:   19866601  HIT:   13274613  MISS:    6591988
L2C LOAD      ACCESS:    9511550  HIT:    3781092  MISS:    5730458
L2C RFO       ACCESS:    2585362  HIT:    1730428  MISS:     854934
L2C PREFETCH  ACCESS:          0  HIT:          0  MISS:          0
L2C WRITEBACK ACCESS:    7769689  HIT:    7763093  MISS:       6596
L2C PREFETCH  REQUESTED:          0  ISSUED:          0  USEFUL:          0  USELESS:          0
LLC TOTAL     ACCESS:   11327129  HIT:    8144664  MISS:    3182465
LLC LOAD      ACCESS:    5730456  HIT:    2777605  MISS:    2952851
LLC RFO       ACCESS:     854931  HIT:     638313  MISS:     216618
LLC PREFETCH  ACCESS:          0  HIT:          0  MISS:          0
LLC WRITEBACK ACCESS:    4741742  HIT:    4728746  MISS:      12996
LLC PREFETCH  REQUESTED:          0  ISSUED:          0  USEFUL:          0  USELESS:          0
Major fault: 0 Minor fault: 6473

CPU 5 cumulative IPC: 0.124136 instructions: 1000000000 cycles: 8055711809
L1D TOTAL     ACCESS:  157317035  HIT:  155230361  MISS:    2086674
L1D LOAD      ACCESS:   96798908  HIT:   94739502  MISS:    2059406
L1D RFO       ACCESS:   60518127  HIT:   60490859  MISS:      27268
L1D PREFETCH  ACCESS:          0  HIT:          0  MISS:          0
L1D WRITEBACK ACCESS:          0  HIT:          0  MISS:          0
L1D PREFETCH  REQUESTED:          0  ISSUED:          0  USEFUL:          0  USELESS:          0
L1I TOTAL     ACCESS:  264782015  HIT:  264781381  MISS:        634
L1I LOAD      ACCESS:  264782015  HIT:  264781381  MISS:        634
L1I RFO       ACCESS:          0  HIT:          0  MISS:          0
L1I PREFETCH  ACCESS:          0  HIT:          0  MISS:          0
L1I WRITEBACK ACCESS:          0  HIT:          0  MISS:          0
L1I PREFETCH  REQUESTED:          0  ISSUED:          0  USEFUL:          0  USELESS:          0
L2C TOTAL     ACCESS:    3197294  HIT:    1255886  MISS:    1941408
L2C LOAD      ACCESS:    2060040  HIT:     144183  MISS:    1915857
L2C RFO       ACCESS:      27268  HIT:       2270  MISS:      24998
L2C PREFETCH  ACCESS:          0  HIT:          0  MISS:          0
L2C WRITEBACK ACCESS:    1109986  HIT:    1109433  MISS:        553
L2C PREFETCH  REQUESTED:          0  ISSUED:          0  USEFUL:          0  USELESS:          0
LLC TOTAL     ACCESS:    3007550  HIT:    1559013  MISS:    1448537
LLC LOAD      ACCESS:    1915857  HIT:     491856  MISS:    1424001
LLC RFO       ACCESS:      24998  HIT:       2504  MISS:      22494
LLC PREFETCH  ACCESS:          0  HIT:          0  MISS:          0
LLC WRITEBACK ACCESS:    1066695  HIT:    1064653  MISS:       2042
LLC PREFETCH  REQUESTED:          0  ISSUED:          0  USEFUL:          0  USELESS:          0
Major fault: 0 Minor fault: 1923

CPU 6 cumulative IPC: 0.122726 instructions: 1000000000 cycles: 8148261901
L1D TOTAL     ACCESS:  162987734  HIT:  159826688  MISS:    3161046
L1D LOAD      ACCESS:  101584046  HIT:   98425820  MISS:    3158226
L1D RFO       ACCESS:   61403688  HIT:   61400868  MISS:       2820
L1D PREFETCH  ACCESS:          0  HIT:          0  MISS:          0
L1D WRITEBACK ACCESS:          0  HIT:          0  MISS:          0
L1D PREFETCH  REQUESTED:          0  ISSUED:          0  USEFUL:          0  USELESS:          0
L1I TOTAL     ACCESS:  260046812  HIT:  260045971  MISS:        841
L1I LOAD      ACCESS:  260046812  HIT:  260045971  MISS:        841
L1I RFO       ACCESS:          0  HIT:          0  MISS:          0
L1I PREFETCH  ACCESS:          0  HIT:          0  MISS:          0
L1I WRITEBACK ACCESS:          0  HIT:          0  MISS:          0
L1I PREFETCH  REQUESTED:          0  ISSUED:          0  USEFUL:          0  USELESS:          0
L2C TOTAL     ACCESS:    4152356  HIT:    1403498  MISS:    2748858
L2C LOAD      ACCESS:    3159067  HIT:     413529  MISS:    2745538
L2C RFO       ACCESS:       2820  HIT:        410  MISS:       2410
L2C PREFETCH  ACCESS:          0  HIT:          0  MISS:          0
L2C WRITEBACK ACCESS:     990469  HIT:     989559  MISS:        910
L2C PREFETCH  REQUESTED:          0  ISSUED:          0  USEFUL:          0  USELESS:          0
LLC TOTAL     ACCESS:    3701994  HIT:    1816723  MISS:    1885271
LLC LOAD      ACCESS:    2745529  HIT:     863434  MISS:    1882095
LLC RFO       ACCESS:       2410  HIT:        244  MISS:       2166
LLC PREFETCH  ACCESS:          0  HIT:          0  MISS:          0
LLC WRITEBACK ACCESS:     954055  HIT:     953045  MISS:       1010
LLC PREFETCH  REQUESTED:          0  ISSUED:          0  USEFUL:          0  USELESS:          0
Major fault: 0 Minor fault: 4361

CPU 7 cumulative IPC: 0.100296 instructions: 1000000003 cycles: 9970493701
L1D TOTAL     ACCESS:  170354747  HIT:  162641125  MISS:    7713622
L1D LOAD      ACCESS:  101840636  HIT:   94489854  MISS:    7350782
L1D RFO       ACCESS:   68514111  HIT:   68151271  MISS:     362840
L1D PREFETCH  ACCESS:          0  HIT:          0  MISS:          0
L1D WRITEBACK ACCESS:          0  HIT:          0  MISS:          0
L1D PREFETCH  REQUESTED:          0  ISSUED:          0  USEFUL:          0  USELESS:          0
L1I TOTAL     ACCESS:  284992259  HIT:  284909245  MISS:      83014
L1I LOAD      ACCESS:  284992259  HIT:  284909245  MISS:      83014
L1I RFO       ACCESS:          0  HIT:          0  MISS:          0
L1I PREFETCH  ACCESS:          0  HIT:          0  MISS:          0
L1I WRITEBACK ACCESS:          0  HIT:          0  MISS:          0
L1I PREFETCH  REQUESTED:          0  ISSUED:          0  USEFUL:          0  USELESS:          0
L2C TOTAL     ACCESS:   12579294  HIT:    6584062  MISS:    5995232
L2C LOAD      ACCESS:    7433783  HIT:    1746250  MISS:    5687533
L2C RFO       ACCESS:     362834  HIT:      65043  MISS:     297791
L2C PREFETCH  ACCESS:          0  HIT:          0  MISS:          0
L2C WRITEBACK ACCESS:    4782677  HIT:    4772769  MISS:       9908
L2C PREFETCH  REQUESTED:          0  ISSUED:          0  USEFUL:          0  USELESS:          0
LLC TOTAL     ACCESS:    9601094  HIT:    7486281  MISS:    2114813
LLC LOAD      ACCESS:    5687531  HIT:    3720134  MISS:    1967397
LLC RFO       ACCESS:     297791  HIT:     151259  MISS:     146532
LLC PREFETCH  ACCESS:          0  HIT:          0  MISS:          0
LLC WRITEBACK ACCESS:    3615772  HIT:    3614888  MISS:        884
LLC PREFETCH  REQUESTED:          0  ISSUED:          0  USEFUL:          0  USELESS:          0
Major fault: 0 Minor fault: 1707
First and Last Hit Histograms
FIRST HIT:982670:232470:347792:218869:560192:216158:266386:227008:795544:221424:302084:219260:429618:212075:245433:230737:0:
LAST HIT:856743:204456:296026:186295:480315:189560:231607:192952:698205:195052:260471:187760:363168:185944:215873:196284:34041361:

DRAM Statistics
 CHANNEL 0
 RQ ROW_BUFFER_HIT:    7686236  ROW_BUFFER_MISS:   11805404
 DBUS_CONGESTED:   15088113
 WQ ROW_BUFFER_HIT:     465424  ROW_BUFFER_MISS:    5619189  FULL:          0

 CHANNEL 1
 RQ ROW_BUFFER_HIT:    7684006  ROW_BUFFER_MISS:   11778831
 DBUS_CONGESTED:   15088113
 WQ ROW_BUFFER_HIT:     463732  ROW_BUFFER_MISS:    5609033  FULL:          0

 AVG_CONGESTED_CYCLE: 13
