
*** ChampSim Multicore Out-of-Order Simulator ***

Warmup Instructions: 0
Simulation Instructions: 1000000000
Number of CPUs: 8
LLC sets: 32768
LLC ways: 16
Off-chip DRAM Size: 8192 MB Channels: 2 Width: 64-bit Data Rate: 1600 MT/s

CPU 0 runs /data/behnam/ChampSim/tracer/behnam_trace/streaming_phase0_core0.trace.gz
CPU 1 runs /data/behnam/ChampSim/tracer/behnam_trace/streaming_phase0_core1.trace.gz
CPU 2 runs /data/behnam/ChampSim/tracer/behnam_trace/streaming_phase0_core2.trace.gz
CPU 3 runs /data/behnam/ChampSim/tracer/behnam_trace/streaming_phase0_core3.trace.gz
CPU 4 runs /data/behnam/ChampSim/tracer/behnam_trace/cloud9_phase0_core0.trace.gz
CPU 5 runs /data/behnam/ChampSim/tracer/behnam_trace/cloud9_phase0_core1.trace.gz
CPU 6 runs /data/behnam/ChampSim/tracer/behnam_trace/cloud9_phase0_core2.trace.gz
CPU 7 runs /data/behnam/ChampSim/tracer/behnam_trace/cloud9_phase0_core3.trace.gz
CPU 0 Bimodal branch predictor
CPU 1 Bimodal branch predictor
CPU 2 Bimodal branch predictor
CPU 3 Bimodal branch predictor
CPU 4 Bimodal branch predictor
CPU 5 Bimodal branch predictor
CPU 6 Bimodal branch predictor
CPU 7 Bimodal branch predictor
Initialize pLRU state

Warmup complete CPU 0 instructions: 49 cycles: 29 (Simulation time: 0 hr 0 min 0 sec) 
Warmup complete CPU 1 instructions: 41 cycles: 29 (Simulation time: 0 hr 0 min 0 sec) 
Warmup complete CPU 2 instructions: 3 cycles: 29 (Simulation time: 0 hr 0 min 0 sec) 
Warmup complete CPU 3 instructions: 5 cycles: 29 (Simulation time: 0 hr 0 min 0 sec) 
Warmup complete CPU 4 instructions: 3 cycles: 29 (Simulation time: 0 hr 0 min 0 sec) 
Warmup complete CPU 5 instructions: 3 cycles: 29 (Simulation time: 0 hr 0 min 0 sec) 
Warmup complete CPU 6 instructions: 3 cycles: 29 (Simulation time: 0 hr 0 min 0 sec) 
Warmup complete CPU 7 instructions: 3 cycles: 29 (Simulation time: 0 hr 0 min 0 sec) 

Heartbeat CPU 2 instructions: 10000002 cycles: 15801281 heartbeat IPC: 0.63286 cumulative IPC: 0.632861 (Simulation time: 0 hr 1 min 27 sec) 
Heartbeat CPU 1 instructions: 10000000 cycles: 16735840 heartbeat IPC: 0.59752 cumulative IPC: 0.597519 (Simulation time: 0 hr 1 min 30 sec) 
Heartbeat CPU 0 instructions: 10000000 cycles: 21853066 heartbeat IPC: 0.457602 cumulative IPC: 0.4576 (Simulation time: 0 hr 1 min 46 sec) 
Heartbeat CPU 3 instructions: 10000001 cycles: 34537141 heartbeat IPC: 0.289543 cumulative IPC: 0.289543 (Simulation time: 0 hr 2 min 30 sec) 
Heartbeat CPU 2 instructions: 20000000 cycles: 39070920 heartbeat IPC: 0.429744 cumulative IPC: 0.51189 (Simulation time: 0 hr 2 min 47 sec) 
Heartbeat CPU 3 instructions: 20000000 cycles: 52953615 heartbeat IPC: 0.542992 cumulative IPC: 0.377689 (Simulation time: 0 hr 3 min 38 sec) 
Heartbeat CPU 1 instructions: 20000000 cycles: 70421895 heartbeat IPC: 0.186268 cumulative IPC: 0.284002 (Simulation time: 0 hr 4 min 27 sec) 
Heartbeat CPU 0 instructions: 20000000 cycles: 75877749 heartbeat IPC: 0.185101 cumulative IPC: 0.263581 (Simulation time: 0 hr 4 min 41 sec) 
Heartbeat CPU 7 instructions: 10000000 cycles: 78527525 heartbeat IPC: 0.127344 cumulative IPC: 0.127344 (Simulation time: 0 hr 4 min 48 sec) 
Heartbeat CPU 6 instructions: 10000003 cycles: 83439477 heartbeat IPC: 0.119847 cumulative IPC: 0.119847 (Simulation time: 0 hr 5 min 0 sec) 
Heartbeat CPU 2 instructions: 30000001 cycles: 91483628 heartbeat IPC: 0.190793 cumulative IPC: 0.327928 (Simulation time: 0 hr 5 min 21 sec) 
Heartbeat CPU 4 instructions: 10000002 cycles: 100542501 heartbeat IPC: 0.0994604 cumulative IPC: 0.0994604 (Simulation time: 0 hr 5 min 44 sec) 
Heartbeat CPU 5 instructions: 10000001 cycles: 100917004 heartbeat IPC: 0.0990913 cumulative IPC: 0.0990913 (Simulation time: 0 hr 5 min 45 sec) 
Heartbeat CPU 1 instructions: 30000000 cycles: 124744579 heartbeat IPC: 0.184085 cumulative IPC: 0.240491 (Simulation time: 0 hr 6 min 53 sec) 
Heartbeat CPU 0 instructions: 30000000 cycles: 130129815 heartbeat IPC: 0.184325 cumulative IPC: 0.230539 (Simulation time: 0 hr 7 min 7 sec) 
Heartbeat CPU 2 instructions: 40000000 cycles: 134965422 heartbeat IPC: 0.229981 cumulative IPC: 0.296372 (Simulation time: 0 hr 7 min 20 sec) 
Heartbeat CPU 3 instructions: 30000000 cycles: 135442150 heartbeat IPC: 0.121229 cumulative IPC: 0.221497 (Simulation time: 0 hr 7 min 21 sec) 
Heartbeat CPU 7 instructions: 20000000 cycles: 156524145 heartbeat IPC: 0.128211 cumulative IPC: 0.127776 (Simulation time: 0 hr 8 min 17 sec) 
Heartbeat CPU 6 instructions: 20000000 cycles: 166187920 heartbeat IPC: 0.120848 cumulative IPC: 0.120346 (Simulation time: 0 hr 8 min 42 sec) 
Heartbeat CPU 1 instructions: 40000000 cycles: 178478326 heartbeat IPC: 0.186103 cumulative IPC: 0.224117 (Simulation time: 0 hr 9 min 17 sec) 
Heartbeat CPU 2 instructions: 50000000 cycles: 181852308 heartbeat IPC: 0.213279 cumulative IPC: 0.274948 (Simulation time: 0 hr 9 min 28 sec) 
Heartbeat CPU 0 instructions: 40000000 cycles: 184412323 heartbeat IPC: 0.184221 cumulative IPC: 0.216905 (Simulation time: 0 hr 9 min 36 sec) 
Heartbeat CPU 5 instructions: 20000000 cycles: 198607577 heartbeat IPC: 0.102364 cumulative IPC: 0.100701 (Simulation time: 0 hr 10 min 20 sec) 
Heartbeat CPU 4 instructions: 20000000 cycles: 200967823 heartbeat IPC: 0.0995765 cumulative IPC: 0.0995184 (Simulation time: 0 hr 10 min 26 sec) 
Heartbeat CPU 2 instructions: 60000000 cycles: 220285562 heartbeat IPC: 0.260191 cumulative IPC: 0.272374 (Simulation time: 0 hr 11 min 13 sec) 
Heartbeat CPU 3 instructions: 40000000 cycles: 230681274 heartbeat IPC: 0.104999 cumulative IPC: 0.173399 (Simulation time: 0 hr 11 min 40 sec) 
Heartbeat CPU 1 instructions: 50000001 cycles: 232057364 heartbeat IPC: 0.18664 cumulative IPC: 0.215464 (Simulation time: 0 hr 11 min 44 sec) 
Heartbeat CPU 7 instructions: 30000000 cycles: 233841708 heartbeat IPC: 0.129337 cumulative IPC: 0.128292 (Simulation time: 0 hr 11 min 50 sec) 
Heartbeat CPU 6 instructions: 30000000 cycles: 249339010 heartbeat IPC: 0.120263 cumulative IPC: 0.120318 (Simulation time: 0 hr 12 min 36 sec) 
Heartbeat CPU 2 instructions: 70000003 cycles: 258814593 heartbeat IPC: 0.259545 cumulative IPC: 0.270464 (Simulation time: 0 hr 13 min 1 sec) 
Heartbeat CPU 0 instructions: 50000001 cycles: 263817654 heartbeat IPC: 0.125936 cumulative IPC: 0.189525 (Simulation time: 0 hr 13 min 15 sec) 
Heartbeat CPU 1 instructions: 60000000 cycles: 267877440 heartbeat IPC: 0.279173 cumulative IPC: 0.223983 (Simulation time: 0 hr 13 min 26 sec) 
Heartbeat CPU 2 instructions: 80000000 cycles: 284826741 heartbeat IPC: 0.384436 cumulative IPC: 0.280873 (Simulation time: 0 hr 14 min 24 sec) 
Heartbeat CPU 5 instructions: 30000000 cycles: 297716436 heartbeat IPC: 0.100899 cumulative IPC: 0.100767 (Simulation time: 0 hr 15 min 2 sec) 
Heartbeat CPU 4 instructions: 30000001 cycles: 302051775 heartbeat IPC: 0.0989277 cumulative IPC: 0.0993207 (Simulation time: 0 hr 15 min 15 sec) 
Heartbeat CPU 3 instructions: 50000001 cycles: 302313689 heartbeat IPC: 0.139602 cumulative IPC: 0.165391 (Simulation time: 0 hr 15 min 16 sec) 
Heartbeat CPU 1 instructions: 70000002 cycles: 304239645 heartbeat IPC: 0.275011 cumulative IPC: 0.230082 (Simulation time: 0 hr 15 min 22 sec) 
Heartbeat CPU 2 instructions: 90000003 cycles: 310288456 heartbeat IPC: 0.392747 cumulative IPC: 0.290053 (Simulation time: 0 hr 15 min 41 sec) 
Heartbeat CPU 7 instructions: 40000000 cycles: 311259656 heartbeat IPC: 0.129169 cumulative IPC: 0.12851 (Simulation time: 0 hr 15 min 44 sec) 
Heartbeat CPU 6 instructions: 40000000 cycles: 333795529 heartbeat IPC: 0.118404 cumulative IPC: 0.119834 (Simulation time: 0 hr 16 min 53 sec) 
Heartbeat CPU 1 instructions: 80000000 cycles: 339516674 heartbeat IPC: 0.283471 cumulative IPC: 0.235629 (Simulation time: 0 hr 17 min 9 sec) 
Heartbeat CPU 0 instructions: 60000000 cycles: 341102947 heartbeat IPC: 0.129391 cumulative IPC: 0.1759 (Simulation time: 0 hr 17 min 13 sec) 
Heartbeat CPU 3 instructions: 60000000 cycles: 356225529 heartbeat IPC: 0.185488 cumulative IPC: 0.168433 (Simulation time: 0 hr 17 min 58 sec) 
*** Reached end of trace for Core: 2 Repeating trace: /data/behnam/ChampSim/tracer/behnam_trace/streaming_phase0_core2.trace.gz
Heartbeat CPU 2 instructions: 100000000 cycles: 358171789 heartbeat IPC: 0.208841 cumulative IPC: 0.279196 (Simulation time: 0 hr 18 min 4 sec) 
Heartbeat CPU 2 instructions: 110000003 cycles: 375441882 heartbeat IPC: 0.579036 cumulative IPC: 0.292988 (Simulation time: 0 hr 19 min 12 sec) 
Heartbeat CPU 1 instructions: 90000003 cycles: 379468837 heartbeat IPC: 0.250299 cumulative IPC: 0.237174 (Simulation time: 0 hr 19 min 28 sec) 
Heartbeat CPU 7 instructions: 50000001 cycles: 388983876 heartbeat IPC: 0.12866 cumulative IPC: 0.12854 (Simulation time: 0 hr 19 min 59 sec) 
Heartbeat CPU 0 instructions: 70000003 cycles: 390472454 heartbeat IPC: 0.202554 cumulative IPC: 0.17927 (Simulation time: 0 hr 20 min 4 sec) 
Heartbeat CPU 5 instructions: 40000000 cycles: 398329518 heartbeat IPC: 0.0993907 cumulative IPC: 0.100419 (Simulation time: 0 hr 20 min 30 sec) 
Heartbeat CPU 2 instructions: 120000000 cycles: 400161321 heartbeat IPC: 0.40454 cumulative IPC: 0.299879 (Simulation time: 0 hr 20 min 35 sec) 
Heartbeat CPU 4 instructions: 40000000 cycles: 401849428 heartbeat IPC: 0.100203 cumulative IPC: 0.0995398 (Simulation time: 0 hr 20 min 40 sec) 
Heartbeat CPU 3 instructions: 70000003 cycles: 410343638 heartbeat IPC: 0.184781 cumulative IPC: 0.170589 (Simulation time: 0 hr 21 min 5 sec) 
Heartbeat CPU 6 instructions: 50000000 cycles: 418312379 heartbeat IPC: 0.11832 cumulative IPC: 0.119528 (Simulation time: 0 hr 21 min 26 sec) 
Heartbeat CPU 0 instructions: 80000000 cycles: 443865681 heartbeat IPC: 0.18729 cumulative IPC: 0.180235 (Simulation time: 0 hr 22 min 33 sec) 
Heartbeat CPU 2 instructions: 130000000 cycles: 453127408 heartbeat IPC: 0.1888 cumulative IPC: 0.286895 (Simulation time: 0 hr 22 min 58 sec) 
*** Reached end of trace for Core: 1 Repeating trace: /data/behnam/ChampSim/tracer/behnam_trace/streaming_phase0_core1.trace.gz
Heartbeat CPU 1 instructions: 100000000 cycles: 459681876 heartbeat IPC: 0.124668 cumulative IPC: 0.217542 (Simulation time: 0 hr 23 min 15 sec) 
Heartbeat CPU 3 instructions: 80000000 cycles: 463830562 heartbeat IPC: 0.186962 cumulative IPC: 0.172477 (Simulation time: 0 hr 23 min 29 sec) 
Heartbeat CPU 7 instructions: 60000000 cycles: 466579902 heartbeat IPC: 0.128873 cumulative IPC: 0.128595 (Simulation time: 0 hr 23 min 39 sec) 
Heartbeat CPU 1 instructions: 110000002 cycles: 477998264 heartbeat IPC: 0.545959 cumulative IPC: 0.230126 (Simulation time: 0 hr 24 min 22 sec) 
Heartbeat CPU 5 instructions: 50000001 cycles: 495843034 heartbeat IPC: 0.10255 cumulative IPC: 0.100838 (Simulation time: 0 hr 25 min 14 sec) 
Heartbeat CPU 2 instructions: 140000000 cycles: 497332835 heartbeat IPC: 0.226217 cumulative IPC: 0.281502 (Simulation time: 0 hr 25 min 18 sec) 
Heartbeat CPU 0 instructions: 90000002 cycles: 498406892 heartbeat IPC: 0.183348 cumulative IPC: 0.180575 (Simulation time: 0 hr 25 min 21 sec) 
Heartbeat CPU 6 instructions: 60000000 cycles: 501019918 heartbeat IPC: 0.120908 cumulative IPC: 0.119756 (Simulation time: 0 hr 25 min 28 sec) 
Heartbeat CPU 4 instructions: 50000001 cycles: 501999098 heartbeat IPC: 0.0998506 cumulative IPC: 0.0996018 (Simulation time: 0 hr 25 min 31 sec) 
Heartbeat CPU 3 instructions: 90000000 cycles: 509870511 heartbeat IPC: 0.217203 cumulative IPC: 0.176515 (Simulation time: 0 hr 25 min 56 sec) 
Heartbeat CPU 1 instructions: 120000000 cycles: 531735278 heartbeat IPC: 0.186091 cumulative IPC: 0.225676 (Simulation time: 0 hr 26 min 57 sec) 
Heartbeat CPU 2 instructions: 150000002 cycles: 544310188 heartbeat IPC: 0.212869 cumulative IPC: 0.275578 (Simulation time: 0 hr 27 min 36 sec) 
Heartbeat CPU 7 instructions: 70000002 cycles: 544507587 heartbeat IPC: 0.128324 cumulative IPC: 0.128557 (Simulation time: 0 hr 27 min 37 sec) 
*** Reached end of trace for Core: 0 Repeating trace: /data/behnam/ChampSim/tracer/behnam_trace/streaming_phase0_core0.trace.gz
Heartbeat CPU 0 instructions: 100000000 cycles: 551838327 heartbeat IPC: 0.187156 cumulative IPC: 0.181212 (Simulation time: 0 hr 28 min 2 sec) 
*** Reached end of trace for Core: 3 Repeating trace: /data/behnam/ChampSim/tracer/behnam_trace/streaming_phase0_core3.trace.gz
Heartbeat CPU 3 instructions: 100000000 cycles: 564177055 heartbeat IPC: 0.18414 cumulative IPC: 0.177249 (Simulation time: 0 hr 28 min 50 sec) 
Heartbeat CPU 0 instructions: 110000002 cycles: 575294938 heartbeat IPC: 0.426319 cumulative IPC: 0.191206 (Simulation time: 0 hr 29 min 27 sec) 
Heartbeat CPU 6 instructions: 70000003 cycles: 582606102 heartbeat IPC: 0.12257 cumulative IPC: 0.12015 (Simulation time: 0 hr 29 min 46 sec) 
Heartbeat CPU 2 instructions: 160000000 cycles: 584039991 heartbeat IPC: 0.2517 cumulative IPC: 0.273954 (Simulation time: 0 hr 29 min 50 sec) 
Heartbeat CPU 1 instructions: 130000000 cycles: 586207869 heartbeat IPC: 0.183579 cumulative IPC: 0.221764 (Simulation time: 0 hr 29 min 56 sec) 
Heartbeat CPU 5 instructions: 60000000 cycles: 594873708 heartbeat IPC: 0.100979 cumulative IPC: 0.100862 (Simulation time: 0 hr 30 min 21 sec) 
Heartbeat CPU 3 instructions: 110000001 cycles: 600290039 heartbeat IPC: 0.276909 cumulative IPC: 0.183245 (Simulation time: 0 hr 30 min 44 sec) 
Heartbeat CPU 4 instructions: 60000000 cycles: 603379799 heartbeat IPC: 0.0986381 cumulative IPC: 0.0994399 (Simulation time: 0 hr 30 min 55 sec) 
Heartbeat CPU 3 instructions: 120000000 cycles: 619730564 heartbeat IPC: 0.514389 cumulative IPC: 0.193633 (Simulation time: 0 hr 31 min 53 sec) 
Heartbeat CPU 7 instructions: 80000000 cycles: 622663145 heartbeat IPC: 0.12795 cumulative IPC: 0.12848 (Simulation time: 0 hr 32 min 2 sec) 
Heartbeat CPU 2 instructions: 170000002 cycles: 622982869 heartbeat IPC: 0.256786 cumulative IPC: 0.272881 (Simulation time: 0 hr 32 min 3 sec) 
Heartbeat CPU 0 instructions: 120000000 cycles: 629373245 heartbeat IPC: 0.184917 cumulative IPC: 0.190666 (Simulation time: 0 hr 32 min 24 sec) 
Heartbeat CPU 1 instructions: 140000000 cycles: 640130899 heartbeat IPC: 0.18545 cumulative IPC: 0.218705 (Simulation time: 0 hr 32 min 59 sec) 
Heartbeat CPU 2 instructions: 180000000 cycles: 649354749 heartbeat IPC: 0.379192 cumulative IPC: 0.277198 (Simulation time: 0 hr 33 min 27 sec) 
Heartbeat CPU 6 instructions: 80000000 cycles: 664245974 heartbeat IPC: 0.122489 cumulative IPC: 0.120437 (Simulation time: 0 hr 34 min 11 sec) 
Heartbeat CPU 2 instructions: 190000000 cycles: 674920066 heartbeat IPC: 0.391155 cumulative IPC: 0.281515 (Simulation time: 0 hr 34 min 44 sec) 
Heartbeat CPU 0 instructions: 130000000 cycles: 683838799 heartbeat IPC: 0.183602 cumulative IPC: 0.190103 (Simulation time: 0 hr 35 min 8 sec) 
Heartbeat CPU 1 instructions: 150000000 cycles: 693643493 heartbeat IPC: 0.186872 cumulative IPC: 0.216249 (Simulation time: 0 hr 35 min 34 sec) 
Heartbeat CPU 5 instructions: 70000002 cycles: 694966477 heartbeat IPC: 0.0999073 cumulative IPC: 0.100724 (Simulation time: 0 hr 35 min 38 sec) 
Heartbeat CPU 7 instructions: 90000000 cycles: 700851865 heartbeat IPC: 0.127896 cumulative IPC: 0.128415 (Simulation time: 0 hr 35 min 57 sec) 
Heartbeat CPU 3 instructions: 130000001 cycles: 702229296 heartbeat IPC: 0.121214 cumulative IPC: 0.185125 (Simulation time: 0 hr 36 min 2 sec) 
Heartbeat CPU 4 instructions: 70000003 cycles: 703159066 heartbeat IPC: 0.100221 cumulative IPC: 0.0995507 (Simulation time: 0 hr 36 min 5 sec) 
*** Reached end of trace for Core: 2 Repeating trace: /data/behnam/ChampSim/tracer/behnam_trace/streaming_phase0_core2.trace.gz
Heartbeat CPU 2 instructions: 200000000 cycles: 722767543 heartbeat IPC: 0.208997 cumulative IPC: 0.276714 (Simulation time: 0 hr 37 min 0 sec) 
Heartbeat CPU 1 instructions: 160000000 cycles: 729357605 heartbeat IPC: 0.280001 cumulative IPC: 0.219371 (Simulation time: 0 hr 37 min 23 sec) 
Heartbeat CPU 0 instructions: 140000000 cycles: 738195675 heartbeat IPC: 0.183969 cumulative IPC: 0.189652 (Simulation time: 0 hr 37 min 56 sec) 
Heartbeat CPU 2 instructions: 210000000 cycles: 740038958 heartbeat IPC: 0.578991 cumulative IPC: 0.283769 (Simulation time: 0 hr 38 min 3 sec) 
Heartbeat CPU 6 instructions: 90000000 cycles: 745855343 heartbeat IPC: 0.122535 cumulative IPC: 0.120667 (Simulation time: 0 hr 38 min 23 sec) 
Heartbeat CPU 2 instructions: 220000000 cycles: 764557637 heartbeat IPC: 0.407852 cumulative IPC: 0.287748 (Simulation time: 0 hr 39 min 20 sec) 
Heartbeat CPU 1 instructions: 170000002 cycles: 766103473 heartbeat IPC: 0.272139 cumulative IPC: 0.221902 (Simulation time: 0 hr 39 min 25 sec) 
*** Reached end of trace for Core: 7 Repeating trace: /data/behnam/ChampSim/tracer/behnam_trace/cloud9_phase0_core3.trace.gz
Heartbeat CPU 7 instructions: 100000000 cycles: 779026947 heartbeat IPC: 0.127918 cumulative IPC: 0.128365 (Simulation time: 0 hr 39 min 59 sec) 
Heartbeat CPU 5 instructions: 80000000 cycles: 793043120 heartbeat IPC: 0.101961 cumulative IPC: 0.100877 (Simulation time: 0 hr 40 min 41 sec) 
Heartbeat CPU 3 instructions: 140000000 cycles: 797194085 heartbeat IPC: 0.105302 cumulative IPC: 0.175616 (Simulation time: 0 hr 40 min 51 sec) 
Heartbeat CPU 1 instructions: 180000000 cycles: 801296735 heartbeat IPC: 0.284145 cumulative IPC: 0.224636 (Simulation time: 0 hr 41 min 1 sec) 
Heartbeat CPU 4 instructions: 80000000 cycles: 803391731 heartbeat IPC: 0.0997678 cumulative IPC: 0.0995778 (Simulation time: 0 hr 41 min 6 sec) 
Heartbeat CPU 2 instructions: 230000002 cycles: 817654576 heartbeat IPC: 0.188335 cumulative IPC: 0.281292 (Simulation time: 0 hr 41 min 41 sec) 
Heartbeat CPU 0 instructions: 150000001 cycles: 817830830 heartbeat IPC: 0.125573 cumulative IPC: 0.183412 (Simulation time: 0 hr 41 min 41 sec) 
*** Reached end of trace for Core: 6 Repeating trace: /data/behnam/ChampSim/tracer/behnam_trace/cloud9_phase0_core2.trace.gz
Heartbeat CPU 6 instructions: 100000000 cycles: 827372305 heartbeat IPC: 0.122674 cumulative IPC: 0.120865 (Simulation time: 0 hr 42 min 5 sec) 
Heartbeat CPU 1 instructions: 190000000 cycles: 840985509 heartbeat IPC: 0.25196 cumulative IPC: 0.225925 (Simulation time: 0 hr 42 min 47 sec) 
Heartbeat CPU 7 instructions: 110000001 cycles: 857465374 heartbeat IPC: 0.127489 cumulative IPC: 0.128285 (Simulation time: 0 hr 43 min 32 sec) 
Heartbeat CPU 2 instructions: 240000000 cycles: 861400742 heartbeat IPC: 0.228591 cumulative IPC: 0.278616 (Simulation time: 0 hr 43 min 42 sec) 
Heartbeat CPU 3 instructions: 150000000 cycles: 868979459 heartbeat IPC: 0.139304 cumulative IPC: 0.172616 (Simulation time: 0 hr 44 min 0 sec) 
Heartbeat CPU 5 instructions: 90000001 cycles: 891945511 heartbeat IPC: 0.10111 cumulative IPC: 0.100903 (Simulation time: 0 hr 44 min 59 sec) 
Heartbeat CPU 0 instructions: 160000000 cycles: 894889505 heartbeat IPC: 0.129771 cumulative IPC: 0.178793 (Simulation time: 0 hr 45 min 7 sec) 
Heartbeat CPU 4 instructions: 90000000 cycles: 904932842 heartbeat IPC: 0.0984823 cumulative IPC: 0.0994549 (Simulation time: 0 hr 45 min 36 sec) 
Heartbeat CPU 2 instructions: 250000002 cycles: 908157672 heartbeat IPC: 0.213872 cumulative IPC: 0.275283 (Simulation time: 0 hr 45 min 47 sec) 
Heartbeat CPU 6 instructions: 110000003 cycles: 910909079 heartbeat IPC: 0.119708 cumulative IPC: 0.120758 (Simulation time: 0 hr 45 min 55 sec) 
*** Reached end of trace for Core: 1 Repeating trace: /data/behnam/ChampSim/tracer/behnam_trace/streaming_phase0_core1.trace.gz
Heartbeat CPU 1 instructions: 200000000 cycles: 921092610 heartbeat IPC: 0.124833 cumulative IPC: 0.217133 (Simulation time: 0 hr 46 min 29 sec) 
Heartbeat CPU 3 instructions: 160000000 cycles: 922963269 heartbeat IPC: 0.185241 cumulative IPC: 0.173355 (Simulation time: 0 hr 46 min 36 sec) 
Heartbeat CPU 7 instructions: 120000000 cycles: 935770057 heartbeat IPC: 0.127706 cumulative IPC: 0.128237 (Simulation time: 0 hr 47 min 24 sec) 
Heartbeat CPU 1 instructions: 210000000 cycles: 940169916 heartbeat IPC: 0.524183 cumulative IPC: 0.223364 (Simulation time: 0 hr 47 min 39 sec) 
Heartbeat CPU 0 instructions: 170000002 cycles: 944313438 heartbeat IPC: 0.202331 cumulative IPC: 0.180025 (Simulation time: 0 hr 47 min 50 sec) 
Heartbeat CPU 2 instructions: 260000000 cycles: 948077280 heartbeat IPC: 0.250503 cumulative IPC: 0.274239 (Simulation time: 0 hr 48 min 0 sec) 
Heartbeat CPU 3 instructions: 170000003 cycles: 977185304 heartbeat IPC: 0.184427 cumulative IPC: 0.173969 (Simulation time: 0 hr 49 min 27 sec) 
Heartbeat CPU 2 instructions: 270000000 cycles: 986501461 heartbeat IPC: 0.260253 cumulative IPC: 0.273694 (Simulation time: 0 hr 49 min 55 sec) 
*** Reached end of trace for Core: 5 Repeating trace: /data/behnam/ChampSim/tracer/behnam_trace/cloud9_phase0_core1.trace.gz
Heartbeat CPU 5 instructions: 100000000 cycles: 992473019 heartbeat IPC: 0.0994752 cumulative IPC: 0.100758 (Simulation time: 0 hr 50 min 14 sec) 
Heartbeat CPU 6 instructions: 120000000 cycles: 993935108 heartbeat IPC: 0.120444 cumulative IPC: 0.120732 (Simulation time: 0 hr 50 min 18 sec) 
Heartbeat CPU 1 instructions: 220000000 cycles: 993988230 heartbeat IPC: 0.18581 cumulative IPC: 0.221331 (Simulation time: 0 hr 50 min 18 sec) 
Heartbeat CPU 0 instructions: 180000000 cycles: 997831649 heartbeat IPC: 0.186852 cumulative IPC: 0.180391 (Simulation time: 0 hr 50 min 30 sec) 
*** Reached end of trace for Core: 4 Repeating trace: /data/behnam/ChampSim/tracer/behnam_trace/cloud9_phase0_core0.trace.gz
Heartbeat CPU 4 instructions: 100000000 cycles: 1004366698 heartbeat IPC: 0.100569 cumulative IPC: 0.0995652 (Simulation time: 0 hr 50 min 51 sec) 
Heartbeat CPU 2 instructions: 280000000 cycles: 1012759470 heartbeat IPC: 0.380836 cumulative IPC: 0.276472 (Simulation time: 0 hr 51 min 18 sec) 
Heartbeat CPU 7 instructions: 130000001 cycles: 1013529427 heartbeat IPC: 0.128602 cumulative IPC: 0.128265 (Simulation time: 0 hr 51 min 20 sec) 
Heartbeat CPU 3 instructions: 180000000 cycles: 1030781827 heartbeat IPC: 0.186579 cumulative IPC: 0.174625 (Simulation time: 0 hr 52 min 14 sec) 
Heartbeat CPU 2 instructions: 290000001 cycles: 1038370503 heartbeat IPC: 0.390457 cumulative IPC: 0.279284 (Simulation time: 0 hr 52 min 39 sec) 
Heartbeat CPU 1 instructions: 230000000 cycles: 1048432601 heartbeat IPC: 0.183674 cumulative IPC: 0.219375 (Simulation time: 0 hr 53 min 8 sec) 
Heartbeat CPU 0 instructions: 190000002 cycles: 1052444301 heartbeat IPC: 0.183108 cumulative IPC: 0.180532 (Simulation time: 0 hr 53 min 19 sec) 
Heartbeat CPU 3 instructions: 190000001 cycles: 1076768461 heartbeat IPC: 0.217455 cumulative IPC: 0.176454 (Simulation time: 0 hr 54 min 28 sec) 
Heartbeat CPU 6 instructions: 130000002 cycles: 1077211496 heartbeat IPC: 0.120082 cumulative IPC: 0.120682 (Simulation time: 0 hr 54 min 29 sec) 
*** Reached end of trace for Core: 2 Repeating trace: /data/behnam/ChampSim/tracer/behnam_trace/streaming_phase0_core2.trace.gz
Heartbeat CPU 2 instructions: 300000000 cycles: 1086261310 heartbeat IPC: 0.208808 cumulative IPC: 0.276177 (Simulation time: 0 hr 54 min 58 sec) 
Heartbeat CPU 7 instructions: 140000000 cycles: 1091268126 heartbeat IPC: 0.128636 cumulative IPC: 0.128291 (Simulation time: 0 hr 55 min 16 sec) 
Heartbeat CPU 5 instructions: 110000002 cycles: 1092356679 heartbeat IPC: 0.100116 cumulative IPC: 0.1007 (Simulation time: 0 hr 55 min 20 sec) 
Heartbeat CPU 1 instructions: 240000000 cycles: 1102312584 heartbeat IPC: 0.185598 cumulative IPC: 0.217724 (Simulation time: 0 hr 55 min 55 sec) 
Heartbeat CPU 2 instructions: 310000003 cycles: 1103422576 heartbeat IPC: 0.582708 cumulative IPC: 0.280944 (Simulation time: 0 hr 55 min 59 sec) 
Heartbeat CPU 4 instructions: 110000002 cycles: 1104019745 heartbeat IPC: 0.100348 cumulative IPC: 0.0996359 (Simulation time: 0 hr 56 min 1 sec) 
*** Reached end of trace for Core: 0 Repeating trace: /data/behnam/ChampSim/tracer/behnam_trace/streaming_phase0_core0.trace.gz
Heartbeat CPU 0 instructions: 200000000 cycles: 1105719307 heartbeat IPC: 0.187705 cumulative IPC: 0.180878 (Simulation time: 0 hr 56 min 6 sec) 
Heartbeat CPU 2 instructions: 320000000 cycles: 1128557402 heartbeat IPC: 0.397854 cumulative IPC: 0.283548 (Simulation time: 0 hr 57 min 30 sec) 
Heartbeat CPU 0 instructions: 210000003 cycles: 1129348983 heartbeat IPC: 0.423197 cumulative IPC: 0.185948 (Simulation time: 0 hr 57 min 33 sec) 
*** Reached end of trace for Core: 3 Repeating trace: /data/behnam/ChampSim/tracer/behnam_trace/streaming_phase0_core3.trace.gz
Heartbeat CPU 3 instructions: 200000000 cycles: 1131291646 heartbeat IPC: 0.183408 cumulative IPC: 0.176789 (Simulation time: 0 hr 57 min 39 sec) 
Heartbeat CPU 1 instructions: 250000001 cycles: 1155806729 heartbeat IPC: 0.186936 cumulative IPC: 0.216299 (Simulation time: 0 hr 58 min 54 sec) 
Heartbeat CPU 6 instructions: 140000000 cycles: 1161778155 heartbeat IPC: 0.11825 cumulative IPC: 0.120505 (Simulation time: 0 hr 59 min 13 sec) 
Heartbeat CPU 3 instructions: 210000001 cycles: 1166943490 heartbeat IPC: 0.28049 cumulative IPC: 0.179957 (Simulation time: 0 hr 59 min 35 sec) 
Heartbeat CPU 7 instructions: 150000000 cycles: 1169062197 heartbeat IPC: 0.128544 cumulative IPC: 0.128308 (Simulation time: 0 hr 59 min 43 sec) 
Heartbeat CPU 2 instructions: 330000003 cycles: 1182028793 heartbeat IPC: 0.187016 cumulative IPC: 0.279181 (Simulation time: 1 hr 0 min 26 sec) 
Heartbeat CPU 0 instructions: 220000000 cycles: 1183438821 heartbeat IPC: 0.184878 cumulative IPC: 0.185899 (Simulation time: 1 hr 0 min 31 sec) 
Heartbeat CPU 3 instructions: 220000000 cycles: 1186187487 heartbeat IPC: 0.519643 cumulative IPC: 0.185468 (Simulation time: 1 hr 0 min 39 sec) 
Heartbeat CPU 5 instructions: 120000000 cycles: 1190425835 heartbeat IPC: 0.101969 cumulative IPC: 0.100804 (Simulation time: 1 hr 0 min 51 sec) 
Heartbeat CPU 1 instructions: 260000000 cycles: 1191991111 heartbeat IPC: 0.276362 cumulative IPC: 0.218122 (Simulation time: 1 hr 0 min 55 sec) 
Heartbeat CPU 4 instructions: 120000000 cycles: 1204913905 heartbeat IPC: 0.0991137 cumulative IPC: 0.0995922 (Simulation time: 1 hr 1 min 40 sec) 
Heartbeat CPU 2 instructions: 340000000 cycles: 1226067157 heartbeat IPC: 0.227075 cumulative IPC: 0.277309 (Simulation time: 1 hr 2 min 37 sec) 
Heartbeat CPU 1 instructions: 270000002 cycles: 1228558175 heartbeat IPC: 0.27347 cumulative IPC: 0.21977 (Simulation time: 1 hr 2 min 43 sec) 
Heartbeat CPU 0 instructions: 230000003 cycles: 1237826767 heartbeat IPC: 0.183864 cumulative IPC: 0.185809 (Simulation time: 1 hr 3 min 8 sec) 
Heartbeat CPU 6 instructions: 150000001 cycles: 1246280103 heartbeat IPC: 0.11834 cumulative IPC: 0.120358 (Simulation time: 1 hr 3 min 30 sec) 
Heartbeat CPU 7 instructions: 160000000 cycles: 1246712314 heartbeat IPC: 0.128783 cumulative IPC: 0.128338 (Simulation time: 1 hr 3 min 31 sec) 
Heartbeat CPU 1 instructions: 280000000 cycles: 1263670271 heartbeat IPC: 0.284802 cumulative IPC: 0.221577 (Simulation time: 1 hr 4 min 21 sec) 
Heartbeat CPU 3 instructions: 230000003 cycles: 1268653568 heartbeat IPC: 0.121262 cumulative IPC: 0.181295 (Simulation time: 1 hr 4 min 37 sec) 
Heartbeat CPU 2 instructions: 350000003 cycles: 1272570503 heartbeat IPC: 0.215038 cumulative IPC: 0.275034 (Simulation time: 1 hr 4 min 49 sec) 
Heartbeat CPU 5 instructions: 130000001 cycles: 1289556824 heartbeat IPC: 0.100877 cumulative IPC: 0.10081 (Simulation time: 1 hr 5 min 42 sec) 
Heartbeat CPU 0 instructions: 240000000 cycles: 1292196444 heartbeat IPC: 0.183926 cumulative IPC: 0.18573 (Simulation time: 1 hr 5 min 50 sec) 
Heartbeat CPU 1 instructions: 290000000 cycles: 1303559187 heartbeat IPC: 0.250696 cumulative IPC: 0.222468 (Simulation time: 1 hr 6 min 23 sec) 
Heartbeat CPU 4 instructions: 130000003 cycles: 1306009165 heartbeat IPC: 0.0989166 cumulative IPC: 0.0995399 (Simulation time: 1 hr 6 min 29 sec) 
Heartbeat CPU 2 instructions: 360000000 cycles: 1312219626 heartbeat IPC: 0.252212 cumulative IPC: 0.274344 (Simulation time: 1 hr 6 min 45 sec) 
Heartbeat CPU 7 instructions: 170000001 cycles: 1324663305 heartbeat IPC: 0.128286 cumulative IPC: 0.128334 (Simulation time: 1 hr 7 min 19 sec) 
Heartbeat CPU 6 instructions: 160000000 cycles: 1328993536 heartbeat IPC: 0.120899 cumulative IPC: 0.120392 (Simulation time: 1 hr 7 min 32 sec) 
Heartbeat CPU 2 instructions: 370000002 cycles: 1350310701 heartbeat IPC: 0.262529 cumulative IPC: 0.274011 (Simulation time: 1 hr 8 min 23 sec) 
Heartbeat CPU 3 instructions: 240000000 cycles: 1363457689 heartbeat IPC: 0.105481 cumulative IPC: 0.176023 (Simulation time: 1 hr 8 min 59 sec) 
Heartbeat CPU 0 instructions: 250000003 cycles: 1371925935 heartbeat IPC: 0.125424 cumulative IPC: 0.182226 (Simulation time: 1 hr 9 min 22 sec) 
Heartbeat CPU 2 instructions: 380000000 cycles: 1376281028 heartbeat IPC: 0.385055 cumulative IPC: 0.276106 (Simulation time: 1 hr 9 min 35 sec) 
*** Reached end of trace for Core: 1 Repeating trace: /data/behnam/ChampSim/tracer/behnam_trace/streaming_phase0_core1.trace.gz
Heartbeat CPU 1 instructions: 300000000 cycles: 1383513798 heartbeat IPC: 0.125071 cumulative IPC: 0.216839 (Simulation time: 1 hr 9 min 54 sec) 
Heartbeat CPU 5 instructions: 140000000 cycles: 1390072471 heartbeat IPC: 0.099487 cumulative IPC: 0.100714 (Simulation time: 1 hr 10 min 17 sec) 
Heartbeat CPU 1 instructions: 310000001 cycles: 1402285015 heartbeat IPC: 0.532731 cumulative IPC: 0.221068 (Simulation time: 1 hr 11 min 1 sec) 
Heartbeat CPU 2 instructions: 390000000 cycles: 1402563156 heartbeat IPC: 0.380487 cumulative IPC: 0.278062 (Simulation time: 1 hr 11 min 2 sec) 
Heartbeat CPU 7 instructions: 180000000 cycles: 1402705165 heartbeat IPC: 0.128136 cumulative IPC: 0.128323 (Simulation time: 1 hr 11 min 2 sec) 
Heartbeat CPU 4 instructions: 140000000 cycles: 1405729816 heartbeat IPC: 0.10028 cumulative IPC: 0.0995924 (Simulation time: 1 hr 11 min 11 sec) 
Heartbeat CPU 6 instructions: 170000003 cycles: 1410523431 heartbeat IPC: 0.122654 cumulative IPC: 0.120523 (Simulation time: 1 hr 11 min 23 sec) 
Heartbeat CPU 3 instructions: 250000003 cycles: 1435325944 heartbeat IPC: 0.139144 cumulative IPC: 0.174176 (Simulation time: 1 hr 12 min 29 sec) 
Heartbeat CPU 0 instructions: 260000000 cycles: 1448860809 heartbeat IPC: 0.12998 cumulative IPC: 0.179451 (Simulation time: 1 hr 13 min 10 sec) 
*** Reached end of trace for Core: 2 Repeating trace: /data/behnam/ChampSim/tracer/behnam_trace/streaming_phase0_core2.trace.gz
Heartbeat CPU 2 instructions: 400000000 cycles: 1450534993 heartbeat IPC: 0.208456 cumulative IPC: 0.27576 (Simulation time: 1 hr 13 min 16 sec) 
Heartbeat CPU 1 instructions: 320000000 cycles: 1456020662 heartbeat IPC: 0.186096 cumulative IPC: 0.219777 (Simulation time: 1 hr 13 min 35 sec) 
Heartbeat CPU 2 instructions: 410000002 cycles: 1467774930 heartbeat IPC: 0.580049 cumulative IPC: 0.279334 (Simulation time: 1 hr 14 min 17 sec) 
Heartbeat CPU 7 instructions: 190000002 cycles: 1480827983 heartbeat IPC: 0.128004 cumulative IPC: 0.128307 (Simulation time: 1 hr 15 min 2 sec) 
Heartbeat CPU 5 instructions: 150000001 cycles: 1487696600 heartbeat IPC: 0.102434 cumulative IPC: 0.100827 (Simulation time: 1 hr 15 min 26 sec) 
Heartbeat CPU 3 instructions: 260000000 cycles: 1489300124 heartbeat IPC: 0.185274 cumulative IPC: 0.174579 (Simulation time: 1 hr 15 min 31 sec) 
Heartbeat CPU 6 instructions: 180000000 cycles: 1492114672 heartbeat IPC: 0.122562 cumulative IPC: 0.120634 (Simulation time: 1 hr 15 min 40 sec) 
Heartbeat CPU 2 instructions: 420000000 cycles: 1492321637 heartbeat IPC: 0.407387 cumulative IPC: 0.281441 (Simulation time: 1 hr 15 min 41 sec) 
Heartbeat CPU 0 instructions: 270000003 cycles: 1498276235 heartbeat IPC: 0.202366 cumulative IPC: 0.180207 (Simulation time: 1 hr 16 min 0 sec) 
Heartbeat CPU 4 instructions: 150000002 cycles: 1505934077 heartbeat IPC: 0.0997962 cumulative IPC: 0.099606 (Simulation time: 1 hr 16 min 22 sec) 
Heartbeat CPU 1 instructions: 330000003 cycles: 1510474530 heartbeat IPC: 0.183642 cumulative IPC: 0.218474 (Simulation time: 1 hr 16 min 34 sec) 
Heartbeat CPU 3 instructions: 270000000 cycles: 1543428431 heartbeat IPC: 0.184746 cumulative IPC: 0.174935 (Simulation time: 1 hr 18 min 6 sec) 
Heartbeat CPU 2 instructions: 430000002 cycles: 1545552343 heartbeat IPC: 0.187862 cumulative IPC: 0.278218 (Simulation time: 1 hr 18 min 12 sec) 
Heartbeat CPU 0 instructions: 280000000 cycles: 1551699942 heartbeat IPC: 0.187183 cumulative IPC: 0.180447 (Simulation time: 1 hr 18 min 29 sec) 
*** Reached end of trace for Core: 7 Repeating trace: /data/behnam/ChampSim/tracer/behnam_trace/cloud9_phase0_core3.trace.gz
Heartbeat CPU 7 instructions: 200000000 cycles: 1558925333 heartbeat IPC: 0.128045 cumulative IPC: 0.128294 (Simulation time: 1 hr 18 min 49 sec) 
Heartbeat CPU 1 instructions: 340000000 cycles: 1564315331 heartbeat IPC: 0.185733 cumulative IPC: 0.217347 (Simulation time: 1 hr 19 min 6 sec) 
Heartbeat CPU 6 instructions: 190000000 cycles: 1573677255 heartbeat IPC: 0.122605 cumulative IPC: 0.120736 (Simulation time: 1 hr 19 min 35 sec) 
Heartbeat CPU 5 instructions: 160000000 cycles: 1586750779 heartbeat IPC: 0.100955 cumulative IPC: 0.100835 (Simulation time: 1 hr 20 min 11 sec) 
Heartbeat CPU 2 instructions: 440000000 cycles: 1589195169 heartbeat IPC: 0.229133 cumulative IPC: 0.27687 (Simulation time: 1 hr 20 min 18 sec) 
Heartbeat CPU 3 instructions: 280000000 cycles: 1596935320 heartbeat IPC: 0.186892 cumulative IPC: 0.175336 (Simulation time: 1 hr 20 min 39 sec) 
Heartbeat CPU 0 instructions: 290000002 cycles: 1606213316 heartbeat IPC: 0.183441 cumulative IPC: 0.180549 (Simulation time: 1 hr 21 min 5 sec) 
Heartbeat CPU 4 instructions: 160000000 cycles: 1607230216 heartbeat IPC: 0.0987204 cumulative IPC: 0.0995501 (Simulation time: 1 hr 21 min 8 sec) 
Heartbeat CPU 1 instructions: 350000001 cycles: 1617642430 heartbeat IPC: 0.187522 cumulative IPC: 0.216364 (Simulation time: 1 hr 21 min 38 sec) 
Heartbeat CPU 2 instructions: 450000001 cycles: 1635844819 heartbeat IPC: 0.214364 cumulative IPC: 0.275087 (Simulation time: 1 hr 22 min 41 sec) 
Heartbeat CPU 7 instructions: 210000002 cycles: 1637357319 heartbeat IPC: 0.127499 cumulative IPC: 0.128255 (Simulation time: 1 hr 22 min 46 sec) 
Heartbeat CPU 3 instructions: 290000003 cycles: 1643222172 heartbeat IPC: 0.216044 cumulative IPC: 0.176483 (Simulation time: 1 hr 23 min 9 sec) 
Heartbeat CPU 1 instructions: 360000000 cycles: 1653837662 heartbeat IPC: 0.276279 cumulative IPC: 0.217676 (Simulation time: 1 hr 23 min 42 sec) 
*** Reached end of trace for Core: 6 Repeating trace: /data/behnam/ChampSim/tracer/behnam_trace/cloud9_phase0_core2.trace.gz
Heartbeat CPU 6 instructions: 200000000 cycles: 1655094489 heartbeat IPC: 0.122824 cumulative IPC: 0.120839 (Simulation time: 1 hr 23 min 46 sec) 
*** Reached end of trace for Core: 0 Repeating trace: /data/behnam/ChampSim/tracer/behnam_trace/streaming_phase0_core0.trace.gz
Heartbeat CPU 0 instructions: 300000000 cycles: 1659470504 heartbeat IPC: 0.187768 cumulative IPC: 0.180781 (Simulation time: 1 hr 23 min 59 sec) 
Heartbeat CPU 2 instructions: 460000000 cycles: 1676435792 heartbeat IPC: 0.24636 cumulative IPC: 0.274392 (Simulation time: 1 hr 24 min 59 sec) 
Heartbeat CPU 0 instructions: 310000002 cycles: 1683447529 heartbeat IPC: 0.417066 cumulative IPC: 0.184146 (Simulation time: 1 hr 25 min 19 sec) 
Heartbeat CPU 5 instructions: 170000002 cycles: 1686563088 heartbeat IPC: 0.100188 cumulative IPC: 0.100797 (Simulation time: 1 hr 25 min 29 sec) 
Heartbeat CPU 1 instructions: 370000003 cycles: 1691131652 heartbeat IPC: 0.26814 cumulative IPC: 0.218788 (Simulation time: 1 hr 25 min 44 sec) 
*** Reached end of trace for Core: 3 Repeating trace: /data/behnam/ChampSim/tracer/behnam_trace/streaming_phase0_core3.trace.gz
Heartbeat CPU 3 instructions: 300000000 cycles: 1697921367 heartbeat IPC: 0.182818 cumulative IPC: 0.176687 (Simulation time: 1 hr 26 min 4 sec) 
Heartbeat CPU 4 instructions: 170000001 cycles: 1706777146 heartbeat IPC: 0.100455 cumulative IPC: 0.0996029 (Simulation time: 1 hr 26 min 34 sec) 
Heartbeat CPU 2 instructions: 470000002 cycles: 1714391473 heartbeat IPC: 0.263465 cumulative IPC: 0.27415 (Simulation time: 1 hr 26 min 59 sec) 
Heartbeat CPU 7 instructions: 220000000 cycles: 1715764459 heartbeat IPC: 0.127539 cumulative IPC: 0.128223 (Simulation time: 1 hr 27 min 5 sec) 
Heartbeat CPU 1 instructions: 380000000 cycles: 1726969681 heartbeat IPC: 0.279033 cumulative IPC: 0.220039 (Simulation time: 1 hr 27 min 40 sec) 
Heartbeat CPU 3 instructions: 310000000 cycles: 1733029664 heartbeat IPC: 0.284833 cumulative IPC: 0.178877 (Simulation time: 1 hr 28 min 4 sec) 
Heartbeat CPU 0 instructions: 320000000 cycles: 1737572950 heartbeat IPC: 0.184756 cumulative IPC: 0.184165 (Simulation time: 1 hr 28 min 20 sec) 
Heartbeat CPU 6 instructions: 210000003 cycles: 1738855243 heartbeat IPC: 0.119388 cumulative IPC: 0.120769 (Simulation time: 1 hr 28 min 25 sec) 
Heartbeat CPU 2 instructions: 480000000 cycles: 1741497855 heartbeat IPC: 0.368917 cumulative IPC: 0.275625 (Simulation time: 1 hr 28 min 35 sec) 
Heartbeat CPU 3 instructions: 320000000 cycles: 1753344713 heartbeat IPC: 0.492246 cumulative IPC: 0.182508 (Simulation time: 1 hr 29 min 20 sec) 
Heartbeat CPU 1 instructions: 390000000 cycles: 1767104457 heartbeat IPC: 0.24916 cumulative IPC: 0.2207 (Simulation time: 1 hr 30 min 10 sec) 
Heartbeat CPU 2 instructions: 490000000 cycles: 1767980894 heartbeat IPC: 0.3776 cumulative IPC: 0.277152 (Simulation time: 1 hr 30 min 12 sec) 
Heartbeat CPU 5 instructions: 180000000 cycles: 1784899645 heartbeat IPC: 0.101692 cumulative IPC: 0.100846 (Simulation time: 1 hr 30 min 58 sec) 
Heartbeat CPU 0 instructions: 330000002 cycles: 1792032075 heartbeat IPC: 0.183624 cumulative IPC: 0.184148 (Simulation time: 1 hr 31 min 16 sec) 
Heartbeat CPU 7 instructions: 230000000 cycles: 1793606204 heartbeat IPC: 0.128466 cumulative IPC: 0.128233 (Simulation time: 1 hr 31 min 19 sec) 
Heartbeat CPU 4 instructions: 180000000 cycles: 1807188163 heartbeat IPC: 0.0995907 cumulative IPC: 0.0996022 (Simulation time: 1 hr 31 min 52 sec) 
*** Reached end of trace for Core: 2 Repeating trace: /data/behnam/ChampSim/tracer/behnam_trace/streaming_phase0_core2.trace.gz
Heartbeat CPU 2 instructions: 500000000 cycles: 1815722715 heartbeat IPC: 0.20946 cumulative IPC: 0.275372 (Simulation time: 1 hr 32 min 16 sec) 
Heartbeat CPU 6 instructions: 220000000 cycles: 1821923755 heartbeat IPC: 0.120383 cumulative IPC: 0.120751 (Simulation time: 1 hr 32 min 37 sec) 
Heartbeat CPU 2 instructions: 510000003 cycles: 1832575059 heartbeat IPC: 0.593389 cumulative IPC: 0.278297 (Simulation time: 1 hr 33 min 12 sec) 
Heartbeat CPU 3 instructions: 330000002 cycles: 1836150210 heartbeat IPC: 0.120765 cumulative IPC: 0.179724 (Simulation time: 1 hr 33 min 22 sec) 
Heartbeat CPU 0 instructions: 340000000 cycles: 1846383132 heartbeat IPC: 0.183989 cumulative IPC: 0.184144 (Simulation time: 1 hr 33 min 53 sec) 
*** Reached end of trace for Core: 1 Repeating trace: /data/behnam/ChampSim/tracer/behnam_trace/streaming_phase0_core1.trace.gz
Heartbeat CPU 1 instructions: 400000000 cycles: 1846889082 heartbeat IPC: 0.125337 cumulative IPC: 0.21658 (Simulation time: 1 hr 33 min 55 sec) 
Heartbeat CPU 2 instructions: 520000000 cycles: 1857228556 heartbeat IPC: 0.405622 cumulative IPC: 0.279987 (Simulation time: 1 hr 34 min 33 sec) 
Heartbeat CPU 1 instructions: 410000000 cycles: 1865718735 heartbeat IPC: 0.531077 cumulative IPC: 0.219754 (Simulation time: 1 hr 35 min 3 sec) 
Heartbeat CPU 7 instructions: 240000000 cycles: 1871447508 heartbeat IPC: 0.128467 cumulative IPC: 0.128243 (Simulation time: 1 hr 35 min 18 sec) 
Heartbeat CPU 5 instructions: 190000002 cycles: 1884028033 heartbeat IPC: 0.100879 cumulative IPC: 0.100848 (Simulation time: 1 hr 35 min 49 sec) 
Heartbeat CPU 6 instructions: 230000000 cycles: 1905291495 heartbeat IPC: 0.11995 cumulative IPC: 0.120716 (Simulation time: 1 hr 36 min 41 sec) 
Heartbeat CPU 4 instructions: 190000000 cycles: 1908953294 heartbeat IPC: 0.0982655 cumulative IPC: 0.099531 (Simulation time: 1 hr 36 min 50 sec) 
Heartbeat CPU 2 instructions: 530000000 cycles: 1910812442 heartbeat IPC: 0.186623 cumulative IPC: 0.277369 (Simulation time: 1 hr 36 min 54 sec) 
Heartbeat CPU 1 instructions: 420000000 cycles: 1919409326 heartbeat IPC: 0.186252 cumulative IPC: 0.218817 (Simulation time: 1 hr 37 min 15 sec) 
Heartbeat CPU 0 instructions: 350000000 cycles: 1926241270 heartbeat IPC: 0.125222 cumulative IPC: 0.181701 (Simulation time: 1 hr 37 min 32 sec) 
Heartbeat CPU 3 instructions: 340000000 cycles: 1930917123 heartbeat IPC: 0.105522 cumulative IPC: 0.176082 (Simulation time: 1 hr 37 min 46 sec) 
Heartbeat CPU 7 instructions: 250000003 cycles: 1949124507 heartbeat IPC: 0.128738 cumulative IPC: 0.128263 (Simulation time: 1 hr 38 min 33 sec) 
Heartbeat CPU 2 instructions: 540000000 cycles: 1954257288 heartbeat IPC: 0.230177 cumulative IPC: 0.27632 (Simulation time: 1 hr 38 min 46 sec) 
Heartbeat CPU 1 instructions: 430000003 cycles: 1973740639 heartbeat IPC: 0.184056 cumulative IPC: 0.21786 (Simulation time: 1 hr 39 min 33 sec) 
*** Reached end of trace for Core: 5 Repeating trace: /data/behnam/ChampSim/tracer/behnam_trace/cloud9_phase0_core1.trace.gz
Heartbeat CPU 5 instructions: 200000000 cycles: 1984298058 heartbeat IPC: 0.0997307 cumulative IPC: 0.100791 (Simulation time: 1 hr 40 min 1 sec) 
Heartbeat CPU 6 instructions: 240000000 cycles: 1989658461 heartbeat IPC: 0.11853 cumulative IPC: 0.120624 (Simulation time: 1 hr 40 min 16 sec) 
Heartbeat CPU 2 instructions: 550000001 cycles: 2000519498 heartbeat IPC: 0.216159 cumulative IPC: 0.274929 (Simulation time: 1 hr 40 min 51 sec) 
Heartbeat CPU 3 instructions: 350000001 cycles: 2002633909 heartbeat IPC: 0.139437 cumulative IPC: 0.17477 (Simulation time: 1 hr 40 min 59 sec) 
Heartbeat CPU 0 instructions: 360000000 cycles: 2002886410 heartbeat IPC: 0.130471 cumulative IPC: 0.179741 (Simulation time: 1 hr 40 min 59 sec) 
*** Reached end of trace for Core: 4 Repeating trace: /data/behnam/ChampSim/tracer/behnam_trace/cloud9_phase0_core0.trace.gz
Heartbeat CPU 4 instructions: 200000000 cycles: 2008127041 heartbeat IPC: 0.100833 cumulative IPC: 0.0995953 (Simulation time: 1 hr 41 min 18 sec) 
Heartbeat CPU 7 instructions: 260000000 cycles: 2026605401 heartbeat IPC: 0.129064 cumulative IPC: 0.128293 (Simulation time: 1 hr 42 min 14 sec) 
Heartbeat CPU 1 instructions: 440000000 cycles: 2027659867 heartbeat IPC: 0.185463 cumulative IPC: 0.216999 (Simulation time: 1 hr 42 min 17 sec) 
Heartbeat CPU 2 instructions: 560000000 cycles: 2040957741 heartbeat IPC: 0.247291 cumulative IPC: 0.274381 (Simulation time: 1 hr 42 min 55 sec) 
Heartbeat CPU 0 instructions: 370000001 cycles: 2052256309 heartbeat IPC: 0.202553 cumulative IPC: 0.180289 (Simulation time: 1 hr 43 min 29 sec) 
Heartbeat CPU 3 instructions: 360000000 cycles: 2056656207 heartbeat IPC: 0.185109 cumulative IPC: 0.175041 (Simulation time: 1 hr 43 min 43 sec) 
Heartbeat CPU 6 instructions: 250000001 cycles: 2074002341 heartbeat IPC: 0.118562 cumulative IPC: 0.12054 (Simulation time: 1 hr 44 min 32 sec) 
Heartbeat CPU 2 instructions: 570000003 cycles: 2078405259 heartbeat IPC: 0.26704 cumulative IPC: 0.274249 (Simulation time: 1 hr 44 min 46 sec) 
Heartbeat CPU 1 instructions: 450000003 cycles: 2081020061 heartbeat IPC: 0.187406 cumulative IPC: 0.21624 (Simulation time: 1 hr 44 min 55 sec) 
Heartbeat CPU 5 instructions: 210000000 cycles: 2084205849 heartbeat IPC: 0.100092 cumulative IPC: 0.100758 (Simulation time: 1 hr 45 min 5 sec) 
Heartbeat CPU 7 instructions: 270000000 cycles: 2104444282 heartbeat IPC: 0.12847 cumulative IPC: 0.1283 (Simulation time: 1 hr 46 min 15 sec) 
Heartbeat CPU 2 instructions: 580000000 cycles: 2105268918 heartbeat IPC: 0.37225 cumulative IPC: 0.275499 (Simulation time: 1 hr 46 min 18 sec) 
Heartbeat CPU 0 instructions: 380000000 cycles: 2105784111 heartbeat IPC: 0.186819 cumulative IPC: 0.180455 (Simulation time: 1 hr 46 min 20 sec) 
Heartbeat CPU 4 instructions: 210000003 cycles: 2107731721 heartbeat IPC: 0.100397 cumulative IPC: 0.0996332 (Simulation time: 1 hr 46 min 26 sec) 
Heartbeat CPU 3 instructions: 370000000 cycles: 2110880491 heartbeat IPC: 0.184419 cumulative IPC: 0.175282 (Simulation time: 1 hr 46 min 36 sec) 
Heartbeat CPU 1 instructions: 460000000 cycles: 2117380053 heartbeat IPC: 0.275027 cumulative IPC: 0.21725 (Simulation time: 1 hr 46 min 56 sec) 
Heartbeat CPU 2 instructions: 590000001 cycles: 2131569305 heartbeat IPC: 0.380223 cumulative IPC: 0.276791 (Simulation time: 1 hr 47 min 48 sec) 
Heartbeat CPU 1 instructions: 470000000 cycles: 2154274025 heartbeat IPC: 0.271047 cumulative IPC: 0.218171 (Simulation time: 1 hr 48 min 51 sec) 
Heartbeat CPU 6 instructions: 260000000 cycles: 2156720089 heartbeat IPC: 0.120893 cumulative IPC: 0.120553 (Simulation time: 1 hr 48 min 58 sec) 
Heartbeat CPU 0 instructions: 390000001 cycles: 2160354391 heartbeat IPC: 0.18325 cumulative IPC: 0.180526 (Simulation time: 1 hr 49 min 8 sec) 
Heartbeat CPU 3 instructions: 380000000 cycles: 2164486286 heartbeat IPC: 0.186547 cumulative IPC: 0.175561 (Simulation time: 1 hr 49 min 20 sec) 
*** Reached end of trace for Core: 2 Repeating trace: /data/behnam/ChampSim/tracer/behnam_trace/streaming_phase0_core2.trace.gz
Heartbeat CPU 2 instructions: 600000000 cycles: 2179734081 heartbeat IPC: 0.207621 cumulative IPC: 0.275263 (Simulation time: 1 hr 50 min 11 sec) 
Heartbeat CPU 5 instructions: 220000000 cycles: 2182110945 heartbeat IPC: 0.10214 cumulative IPC: 0.10082 (Simulation time: 1 hr 50 min 21 sec) 
Heartbeat CPU 7 instructions: 280000000 cycles: 2182549807 heartbeat IPC: 0.128032 cumulative IPC: 0.12829 (Simulation time: 1 hr 50 min 22 sec) 
Heartbeat CPU 1 instructions: 480000000 cycles: 2190001551 heartbeat IPC: 0.279896 cumulative IPC: 0.219178 (Simulation time: 1 hr 50 min 50 sec) 
Heartbeat CPU 2 instructions: 610000000 cycles: 2197045995 heartbeat IPC: 0.577637 cumulative IPC: 0.277646 (Simulation time: 1 hr 51 min 15 sec) 
Heartbeat CPU 4 instructions: 220000000 cycles: 2208437628 heartbeat IPC: 0.099299 cumulative IPC: 0.0996179 (Simulation time: 1 hr 51 min 55 sec) 
Heartbeat CPU 3 instructions: 390000000 cycles: 2210627937 heartbeat IPC: 0.216724 cumulative IPC: 0.17642 (Simulation time: 1 hr 52 min 2 sec) 
*** Reached end of trace for Core: 0 Repeating trace: /data/behnam/ChampSim/tracer/behnam_trace/streaming_phase0_core0.trace.gz
Heartbeat CPU 0 instructions: 400000000 cycles: 2213443138 heartbeat IPC: 0.188364 cumulative IPC: 0.180714 (Simulation time: 1 hr 52 min 12 sec) 
Heartbeat CPU 2 instructions: 620000000 cycles: 2222019045 heartbeat IPC: 0.400432 cumulative IPC: 0.279026 (Simulation time: 1 hr 52 min 46 sec) 
Heartbeat CPU 1 instructions: 490000001 cycles: 2230540932 heartbeat IPC: 0.246674 cumulative IPC: 0.219678 (Simulation time: 1 hr 53 min 22 sec) 
Heartbeat CPU 0 instructions: 410000002 cycles: 2237804447 heartbeat IPC: 0.410487 cumulative IPC: 0.183215 (Simulation time: 1 hr 53 min 43 sec) 
Heartbeat CPU 6 instructions: 270000001 cycles: 2238271431 heartbeat IPC: 0.122622 cumulative IPC: 0.120629 (Simulation time: 1 hr 53 min 44 sec) 
Heartbeat CPU 7 instructions: 290000001 cycles: 2260748320 heartbeat IPC: 0.12788 cumulative IPC: 0.128276 (Simulation time: 1 hr 54 min 45 sec) 
*** Reached end of trace for Core: 3 Repeating trace: /data/behnam/ChampSim/tracer/behnam_trace/streaming_phase0_core3.trace.gz
Heartbeat CPU 3 instructions: 400000000 cycles: 2265244355 heartbeat IPC: 0.183095 cumulative IPC: 0.176581 (Simulation time: 1 hr 54 min 57 sec) 
Heartbeat CPU 2 instructions: 630000000 cycles: 2275978696 heartbeat IPC: 0.185324 cumulative IPC: 0.276804 (Simulation time: 1 hr 55 min 29 sec) 
Heartbeat CPU 5 instructions: 230000001 cycles: 2281326502 heartbeat IPC: 0.100791 cumulative IPC: 0.100819 (Simulation time: 1 hr 55 min 43 sec) 
Heartbeat CPU 0 instructions: 420000000 cycles: 2291847063 heartbeat IPC: 0.185039 cumulative IPC: 0.183258 (Simulation time: 1 hr 56 min 10 sec) 
Heartbeat CPU 3 instructions: 410000000 cycles: 2299916377 heartbeat IPC: 0.288417 cumulative IPC: 0.178267 (Simulation time: 1 hr 56 min 38 sec) 
Heartbeat CPU 4 instructions: 230000000 cycles: 2309663277 heartbeat IPC: 0.0987892 cumulative IPC: 0.0995816 (Simulation time: 1 hr 57 min 11 sec) 
*** Reached end of trace for Core: 1 Repeating trace: /data/behnam/ChampSim/tracer/behnam_trace/streaming_phase0_core1.trace.gz
Heartbeat CPU 1 instructions: 500000000 cycles: 2310301360 heartbeat IPC: 0.125375 cumulative IPC: 0.216422 (Simulation time: 1 hr 57 min 13 sec) 
Heartbeat CPU 2 instructions: 640000000 cycles: 2319843865 heartbeat IPC: 0.227971 cumulative IPC: 0.275881 (Simulation time: 1 hr 57 min 51 sec) 
Heartbeat CPU 6 instructions: 280000000 cycles: 2319907425 heartbeat IPC: 0.122495 cumulative IPC: 0.120694 (Simulation time: 1 hr 57 min 52 sec) 
Heartbeat CPU 3 instructions: 420000000 cycles: 2320239800 heartbeat IPC: 0.492043 cumulative IPC: 0.181016 (Simulation time: 1 hr 57 min 53 sec) 
Heartbeat CPU 1 instructions: 510000001 cycles: 2329505348 heartbeat IPC: 0.520725 cumulative IPC: 0.218931 (Simulation time: 1 hr 58 min 23 sec) 
*** Reached end of trace for Core: 7 Repeating trace: /data/behnam/ChampSim/tracer/behnam_trace/cloud9_phase0_core3.trace.gz
Heartbeat CPU 7 instructions: 300000000 cycles: 2338951036 heartbeat IPC: 0.127873 cumulative IPC: 0.128263 (Simulation time: 1 hr 58 min 50 sec) 
Heartbeat CPU 0 instructions: 430000000 cycles: 2346313097 heartbeat IPC: 0.183601 cumulative IPC: 0.183266 (Simulation time: 1 hr 59 min 9 sec) 
Heartbeat CPU 2 instructions: 650000001 cycles: 2365907823 heartbeat IPC: 0.217089 cumulative IPC: 0.274736 (Simulation time: 2 hr 0 min 6 sec) 
Heartbeat CPU 5 instructions: 240000000 cycles: 2381989144 heartbeat IPC: 0.0993417 cumulative IPC: 0.100756 (Simulation time: 2 hr 0 min 56 sec) 
Heartbeat CPU 1 instructions: 520000000 cycles: 2383279677 heartbeat IPC: 0.185962 cumulative IPC: 0.218187 (Simulation time: 2 hr 1 min 0 sec) 
Heartbeat CPU 0 instructions: 440000000 cycles: 2400772048 heartbeat IPC: 0.183625 cumulative IPC: 0.183274 (Simulation time: 2 hr 1 min 45 sec) 
Heartbeat CPU 6 instructions: 290000003 cycles: 2401533774 heartbeat IPC: 0.122509 cumulative IPC: 0.120756 (Simulation time: 2 hr 1 min 47 sec) 
Heartbeat CPU 3 instructions: 430000000 cycles: 2403085670 heartbeat IPC: 0.120706 cumulative IPC: 0.178937 (Simulation time: 2 hr 1 min 51 sec) 
Heartbeat CPU 2 instructions: 660000000 cycles: 2406225598 heartbeat IPC: 0.24803 cumulative IPC: 0.274289 (Simulation time: 2 hr 1 min 59 sec) 
Heartbeat CPU 4 instructions: 240000000 cycles: 2409529786 heartbeat IPC: 0.100134 cumulative IPC: 0.0996045 (Simulation time: 2 hr 2 min 7 sec) 
Heartbeat CPU 7 instructions: 310000001 cycles: 2417551291 heartbeat IPC: 0.127226 cumulative IPC: 0.128229 (Simulation time: 2 hr 2 min 32 sec) 
Heartbeat CPU 1 instructions: 530000003 cycles: 2437638314 heartbeat IPC: 0.183963 cumulative IPC: 0.217424 (Simulation time: 2 hr 3 min 24 sec) 
Heartbeat CPU 2 instructions: 670000003 cycles: 2443088173 heartbeat IPC: 0.271278 cumulative IPC: 0.274243 (Simulation time: 2 hr 3 min 39 sec) 
Heartbeat CPU 2 instructions: 680000000 cycles: 2469107576 heartbeat IPC: 0.384328 cumulative IPC: 0.275403 (Simulation time: 2 hr 4 min 54 sec) 
Heartbeat CPU 5 instructions: 250000002 cycles: 2479396195 heartbeat IPC: 0.102662 cumulative IPC: 0.100831 (Simulation time: 2 hr 5 min 23 sec) 
Heartbeat CPU 0 instructions: 450000000 cycles: 2480633112 heartbeat IPC: 0.125217 cumulative IPC: 0.181405 (Simulation time: 2 hr 5 min 27 sec) 
*** Reached end of trace for Core: 6 Repeating trace: /data/behnam/ChampSim/tracer/behnam_trace/cloud9_phase0_core2.trace.gz
Heartbeat CPU 6 instructions: 300000000 cycles: 2483024273 heartbeat IPC: 0.122714 cumulative IPC: 0.12082 (Simulation time: 2 hr 5 min 34 sec) 
Heartbeat CPU 1 instructions: 540000000 cycles: 2491539106 heartbeat IPC: 0.185526 cumulative IPC: 0.216733 (Simulation time: 2 hr 5 min 59 sec) 
Heartbeat CPU 2 instructions: 690000000 cycles: 2494470741 heartbeat IPC: 0.394273 cumulative IPC: 0.276612 (Simulation time: 2 hr 6 min 7 sec) 
Heartbeat CPU 7 instructions: 320000000 cycles: 2495845755 heartbeat IPC: 0.127723 cumulative IPC: 0.128213 (Simulation time: 2 hr 6 min 11 sec) 
Heartbeat CPU 3 instructions: 440000000 cycles: 2497864005 heartbeat IPC: 0.105509 cumulative IPC: 0.176151 (Simulation time: 2 hr 6 min 17 sec) 
Heartbeat CPU 4 instructions: 250000001 cycles: 2509566854 heartbeat IPC: 0.099963 cumulative IPC: 0.0996188 (Simulation time: 2 hr 6 min 45 sec) 
*** Reached end of trace for Core: 2 Repeating trace: /data/behnam/ChampSim/tracer/behnam_trace/streaming_phase0_core2.trace.gz
Heartbeat CPU 2 instructions: 700000000 cycles: 2542190904 heartbeat IPC: 0.209555 cumulative IPC: 0.275353 (Simulation time: 2 hr 8 min 10 sec) 
Heartbeat CPU 1 instructions: 550000001 cycles: 2544788160 heartbeat IPC: 0.187797 cumulative IPC: 0.216128 (Simulation time: 2 hr 8 min 20 sec) 
Heartbeat CPU 0 instructions: 460000000 cycles: 2557258248 heartbeat IPC: 0.130505 cumulative IPC: 0.17988 (Simulation time: 2 hr 9 min 11 sec) 
Heartbeat CPU 2 instructions: 710000003 cycles: 2560218539 heartbeat IPC: 0.554704 cumulative IPC: 0.27732 (Simulation time: 2 hr 9 min 21 sec) 
Heartbeat CPU 6 instructions: 310000001 cycles: 2566520597 heartbeat IPC: 0.119766 cumulative IPC: 0.120786 (Simulation time: 2 hr 9 min 41 sec) 
Heartbeat CPU 3 instructions: 450000003 cycles: 2569509326 heartbeat IPC: 0.139576 cumulative IPC: 0.175131 (Simulation time: 2 hr 9 min 51 sec) 
Heartbeat CPU 7 instructions: 330000002 cycles: 2573472776 heartbeat IPC: 0.128821 cumulative IPC: 0.128231 (Simulation time: 2 hr 10 min 4 sec) 
Heartbeat CPU 5 instructions: 260000000 cycles: 2578474070 heartbeat IPC: 0.100931 cumulative IPC: 0.100835 (Simulation time: 2 hr 10 min 21 sec) 
Heartbeat CPU 1 instructions: 560000000 cycles: 2581520843 heartbeat IPC: 0.272237 cumulative IPC: 0.216926 (Simulation time: 2 hr 10 min 31 sec) 
Heartbeat CPU 2 instructions: 720000000 cycles: 2585005283 heartbeat IPC: 0.403441 cumulative IPC: 0.278529 (Simulation time: 2 hr 10 min 42 sec) 
Heartbeat CPU 0 instructions: 470000001 cycles: 2606716786 heartbeat IPC: 0.20219 cumulative IPC: 0.180303 (Simulation time: 2 hr 11 min 54 sec) 
Heartbeat CPU 4 instructions: 260000000 cycles: 2611057103 heartbeat IPC: 0.0985316 cumulative IPC: 0.0995765 (Simulation time: 2 hr 12 min 6 sec) 
Heartbeat CPU 1 instructions: 570000002 cycles: 2618286046 heartbeat IPC: 0.271996 cumulative IPC: 0.2177 (Simulation time: 2 hr 12 min 26 sec) 
Heartbeat CPU 3 instructions: 460000000 cycles: 2623533065 heartbeat IPC: 0.185104 cumulative IPC: 0.175336 (Simulation time: 2 hr 12 min 41 sec) 
Heartbeat CPU 2 instructions: 730000000 cycles: 2639109797 heartbeat IPC: 0.184827 cumulative IPC: 0.276608 (Simulation time: 2 hr 13 min 26 sec) 
Heartbeat CPU 6 instructions: 320000000 cycles: 2649548296 heartbeat IPC: 0.120442 cumulative IPC: 0.120775 (Simulation time: 2 hr 13 min 59 sec) 
Heartbeat CPU 7 instructions: 340000000 cycles: 2651305103 heartbeat IPC: 0.128481 cumulative IPC: 0.128239 (Simulation time: 2 hr 14 min 4 sec) 
Heartbeat CPU 1 instructions: 580000000 cycles: 2653484566 heartbeat IPC: 0.284103 cumulative IPC: 0.21858 (Simulation time: 2 hr 14 min 10 sec) 
Heartbeat CPU 0 instructions: 480000000 cycles: 2660136017 heartbeat IPC: 0.187198 cumulative IPC: 0.180442 (Simulation time: 2 hr 14 min 31 sec) 
Heartbeat CPU 3 instructions: 470000002 cycles: 2677625975 heartbeat IPC: 0.184867 cumulative IPC: 0.175529 (Simulation time: 2 hr 15 min 22 sec) 
Heartbeat CPU 5 instructions: 270000001 cycles: 2678424550 heartbeat IPC: 0.10005 cumulative IPC: 0.100806 (Simulation time: 2 hr 15 min 24 sec) 
Heartbeat CPU 2 instructions: 740000000 cycles: 2682770096 heartbeat IPC: 0.229041 cumulative IPC: 0.275834 (Simulation time: 2 hr 15 min 36 sec) 
Heartbeat CPU 1 instructions: 590000002 cycles: 2693173910 heartbeat IPC: 0.251957 cumulative IPC: 0.219072 (Simulation time: 2 hr 16 min 10 sec) 
Heartbeat CPU 4 instructions: 270000001 cycles: 2710609530 heartbeat IPC: 0.10045 cumulative IPC: 0.0996086 (Simulation time: 2 hr 16 min 58 sec) 
Heartbeat CPU 0 instructions: 490000001 cycles: 2714682281 heartbeat IPC: 0.183331 cumulative IPC: 0.1805 (Simulation time: 2 hr 17 min 9 sec) 
Heartbeat CPU 7 instructions: 350000002 cycles: 2728958094 heartbeat IPC: 0.128778 cumulative IPC: 0.128254 (Simulation time: 2 hr 17 min 51 sec) 
Heartbeat CPU 2 instructions: 750000001 cycles: 2729018301 heartbeat IPC: 0.216225 cumulative IPC: 0.274824 (Simulation time: 2 hr 17 min 51 sec) 
Heartbeat CPU 3 instructions: 480000000 cycles: 2731232400 heartbeat IPC: 0.186545 cumulative IPC: 0.175745 (Simulation time: 2 hr 17 min 58 sec) 
Heartbeat CPU 6 instructions: 330000001 cycles: 2732832653 heartbeat IPC: 0.120071 cumulative IPC: 0.120754 (Simulation time: 2 hr 18 min 3 sec) 
*** Reached end of trace for Core: 0 Repeating trace: /data/behnam/ChampSim/tracer/behnam_trace/streaming_phase0_core0.trace.gz
Heartbeat CPU 0 instructions: 500000000 cycles: 2767644057 heartbeat IPC: 0.188815 cumulative IPC: 0.180659 (Simulation time: 2 hr 19 min 39 sec) 
Heartbeat CPU 2 instructions: 760000000 cycles: 2770179732 heartbeat IPC: 0.242946 cumulative IPC: 0.27435 (Simulation time: 2 hr 19 min 47 sec) 
*** Reached end of trace for Core: 1 Repeating trace: /data/behnam/ChampSim/tracer/behnam_trace/streaming_phase0_core1.trace.gz
Heartbeat CPU 1 instructions: 600000000 cycles: 2772824112 heartbeat IPC: 0.125549 cumulative IPC: 0.216386 (Simulation time: 2 hr 19 min 57 sec) 
Heartbeat CPU 5 instructions: 280000000 cycles: 2776349594 heartbeat IPC: 0.102119 cumulative IPC: 0.100852 (Simulation time: 2 hr 20 min 15 sec) 
Heartbeat CPU 3 instructions: 490000000 cycles: 2777834999 heartbeat IPC: 0.21458 cumulative IPC: 0.176396 (Simulation time: 2 hr 20 min 22 sec) 
Heartbeat CPU 0 instructions: 510000001 cycles: 2792161335 heartbeat IPC: 0.407876 cumulative IPC: 0.182654 (Simulation time: 2 hr 21 min 19 sec) 
Heartbeat CPU 1 instructions: 610000000 cycles: 2792803920 heartbeat IPC: 0.500505 cumulative IPC: 0.218418 (Simulation time: 2 hr 21 min 21 sec) 
Heartbeat CPU 7 instructions: 360000000 cycles: 2806629316 heartbeat IPC: 0.128748 cumulative IPC: 0.128268 (Simulation time: 2 hr 22 min 1 sec) 
Heartbeat CPU 2 instructions: 770000001 cycles: 2808288563 heartbeat IPC: 0.262406 cumulative IPC: 0.274188 (Simulation time: 2 hr 22 min 6 sec) 
Heartbeat CPU 4 instructions: 280000000 cycles: 2810745727 heartbeat IPC: 0.099864 cumulative IPC: 0.0996177 (Simulation time: 2 hr 22 min 14 sec) 
Heartbeat CPU 6 instructions: 340000000 cycles: 2817390802 heartbeat IPC: 0.118262 cumulative IPC: 0.120679 (Simulation time: 2 hr 22 min 35 sec) 
*** Reached end of trace for Core: 3 Repeating trace: /data/behnam/ChampSim/tracer/behnam_trace/streaming_phase0_core3.trace.gz
Heartbeat CPU 3 instructions: 500000000 cycles: 2832413978 heartbeat IPC: 0.183221 cumulative IPC: 0.176528 (Simulation time: 2 hr 23 min 24 sec) 
Heartbeat CPU 2 instructions: 780000000 cycles: 2834793233 heartbeat IPC: 0.377292 cumulative IPC: 0.275152 (Simulation time: 2 hr 23 min 33 sec) 
Heartbeat CPU 0 instructions: 520000000 cycles: 2846308538 heartbeat IPC: 0.184682 cumulative IPC: 0.182693 (Simulation time: 2 hr 24 min 12 sec) 
Heartbeat CPU 1 instructions: 620000000 cycles: 2846593129 heartbeat IPC: 0.185911 cumulative IPC: 0.217804 (Simulation time: 2 hr 24 min 13 sec) 
Heartbeat CPU 2 instructions: 790000001 cycles: 2860733825 heartbeat IPC: 0.385496 cumulative IPC: 0.276153 (Simulation time: 2 hr 24 min 57 sec) 
Heartbeat CPU 3 instructions: 510000000 cycles: 2867261757 heartbeat IPC: 0.286962 cumulative IPC: 0.17787 (Simulation time: 2 hr 25 min 21 sec) 
Heartbeat CPU 5 instructions: 290000002 cycles: 2875509081 heartbeat IPC: 0.100848 cumulative IPC: 0.100852 (Simulation time: 2 hr 25 min 48 sec) 
Heartbeat CPU 7 instructions: 370000003 cycles: 2884627174 heartbeat IPC: 0.128209 cumulative IPC: 0.128266 (Simulation time: 2 hr 26 min 20 sec) 
Heartbeat CPU 3 instructions: 520000000 cycles: 2886970507 heartbeat IPC: 0.507389 cumulative IPC: 0.18012 (Simulation time: 2 hr 26 min 27 sec) 
Heartbeat CPU 0 instructions: 530000001 cycles: 2900694830 heartbeat IPC: 0.18387 cumulative IPC: 0.182715 (Simulation time: 2 hr 27 min 4 sec) 
Heartbeat CPU 1 instructions: 630000001 cycles: 2901032284 heartbeat IPC: 0.183691 cumulative IPC: 0.217164 (Simulation time: 2 hr 27 min 5 sec) 
Heartbeat CPU 6 instructions: 350000000 cycles: 2901942686 heartbeat IPC: 0.118271 cumulative IPC: 0.120609 (Simulation time: 2 hr 27 min 7 sec) 
*** Reached end of trace for Core: 2 Repeating trace: /data/behnam/ChampSim/tracer/behnam_trace/streaming_phase0_core2.trace.gz
Heartbeat CPU 2 instructions: 800000000 cycles: 2908619216 heartbeat IPC: 0.208832 cumulative IPC: 0.275045 (Simulation time: 2 hr 27 min 29 sec) 
Heartbeat CPU 4 instructions: 290000000 cycles: 2912615787 heartbeat IPC: 0.0981643 cumulative IPC: 0.0995669 (Simulation time: 2 hr 27 min 42 sec) 
Heartbeat CPU 2 instructions: 810000000 cycles: 2925725895 heartbeat IPC: 0.584567 cumulative IPC: 0.276854 (Simulation time: 2 hr 28 min 26 sec) 
Heartbeat CPU 2 instructions: 820000000 cycles: 2949913972 heartbeat IPC: 0.413427 cumulative IPC: 0.277974 (Simulation time: 2 hr 29 min 40 sec) 
Heartbeat CPU 1 instructions: 640000000 cycles: 2954902438 heartbeat IPC: 0.185632 cumulative IPC: 0.216589 (Simulation time: 2 hr 29 min 55 sec) 
Heartbeat CPU 0 instructions: 540000000 cycles: 2955209911 heartbeat IPC: 0.183435 cumulative IPC: 0.182728 (Simulation time: 2 hr 29 min 56 sec) 
Heartbeat CPU 7 instructions: 380000000 cycles: 2962769964 heartbeat IPC: 0.127971 cumulative IPC: 0.128258 (Simulation time: 2 hr 30 min 16 sec) 
Heartbeat CPU 3 instructions: 530000002 cycles: 2969750907 heartbeat IPC: 0.120802 cumulative IPC: 0.178466 (Simulation time: 2 hr 30 min 34 sec) 
*** Reached end of trace for Core: 5 Repeating trace: /data/behnam/ChampSim/tracer/behnam_trace/cloud9_phase0_core1.trace.gz
Heartbeat CPU 5 instructions: 300000000 cycles: 2976157295 heartbeat IPC: 0.0993559 cumulative IPC: 0.100801 (Simulation time: 2 hr 30 min 51 sec) 
Heartbeat CPU 6 instructions: 360000000 cycles: 2984684390 heartbeat IPC: 0.120858 cumulative IPC: 0.120616 (Simulation time: 2 hr 31 min 12 sec) 
Heartbeat CPU 2 instructions: 830000000 cycles: 3003681981 heartbeat IPC: 0.185984 cumulative IPC: 0.276328 (Simulation time: 2 hr 31 min 58 sec) 
Heartbeat CPU 1 instructions: 650000003 cycles: 3008128215 heartbeat IPC: 0.187879 cumulative IPC: 0.216081 (Simulation time: 2 hr 32 min 9 sec) 
*** Reached end of trace for Core: 4 Repeating trace: /data/behnam/ChampSim/tracer/behnam_trace/cloud9_phase0_core0.trace.gz
Heartbeat CPU 4 instructions: 300000000 cycles: 3012009091 heartbeat IPC: 0.10061 cumulative IPC: 0.0996013 (Simulation time: 2 hr 32 min 20 sec) 
Heartbeat CPU 0 instructions: 550000000 cycles: 3035154219 heartbeat IPC: 0.125087 cumulative IPC: 0.18121 (Simulation time: 2 hr 33 min 28 sec) 
Heartbeat CPU 7 instructions: 390000000 cycles: 3040827669 heartbeat IPC: 0.12811 cumulative IPC: 0.128255 (Simulation time: 2 hr 33 min 42 sec) 
Heartbeat CPU 1 instructions: 660000000 cycles: 3043971953 heartbeat IPC: 0.278989 cumulative IPC: 0.216822 (Simulation time: 2 hr 33 min 50 sec) 
Heartbeat CPU 2 instructions: 840000000 cycles: 3047323543 heartbeat IPC: 0.229139 cumulative IPC: 0.275652 (Simulation time: 2 hr 33 min 58 sec) 
Heartbeat CPU 3 instructions: 540000000 cycles: 3064521387 heartbeat IPC: 0.105518 cumulative IPC: 0.17621 (Simulation time: 2 hr 34 min 46 sec) 
Heartbeat CPU 6 instructions: 370000003 cycles: 3066126753 heartbeat IPC: 0.122786 cumulative IPC: 0.120673 (Simulation time: 2 hr 34 min 50 sec) 
Heartbeat CPU 5 instructions: 310000001 cycles: 3075969031 heartbeat IPC: 0.100189 cumulative IPC: 0.100781 (Simulation time: 2 hr 35 min 14 sec) 
Heartbeat CPU 1 instructions: 670000000 cycles: 3080097119 heartbeat IPC: 0.276815 cumulative IPC: 0.217526 (Simulation time: 2 hr 35 min 24 sec) 
Heartbeat CPU 2 instructions: 850000001 cycles: 3093035733 heartbeat IPC: 0.21876 cumulative IPC: 0.274811 (Simulation time: 2 hr 36 min 1 sec) 
Heartbeat CPU 4 instructions: 310000002 cycles: 3111479923 heartbeat IPC: 0.100532 cumulative IPC: 0.099631 (Simulation time: 2 hr 37 min 6 sec) 
Heartbeat CPU 0 instructions: 560000000 cycles: 3111531817 heartbeat IPC: 0.130928 cumulative IPC: 0.179976 (Simulation time: 2 hr 37 min 7 sec) 
Heartbeat CPU 1 instructions: 680000000 cycles: 3115915996 heartbeat IPC: 0.279182 cumulative IPC: 0.218234 (Simulation time: 2 hr 37 min 19 sec) 
*** Reached end of trace for Core: 7 Repeating trace: /data/behnam/ChampSim/tracer/behnam_trace/cloud9_phase0_core3.trace.gz
Heartbeat CPU 7 instructions: 400000000 cycles: 3118791840 heartbeat IPC: 0.128264 cumulative IPC: 0.128255 (Simulation time: 2 hr 37 min 26 sec) 
Heartbeat CPU 2 instructions: 860000000 cycles: 3134698770 heartbeat IPC: 0.240021 cumulative IPC: 0.274349 (Simulation time: 2 hr 38 min 10 sec) 
Heartbeat CPU 3 instructions: 550000000 cycles: 3136062664 heartbeat IPC: 0.139779 cumulative IPC: 0.175379 (Simulation time: 2 hr 38 min 14 sec) 
Heartbeat CPU 6 instructions: 380000000 cycles: 3147601708 heartbeat IPC: 0.122737 cumulative IPC: 0.120727 (Simulation time: 2 hr 38 min 53 sec) 
Heartbeat CPU 1 instructions: 690000000 cycles: 3155948701 heartbeat IPC: 0.249796 cumulative IPC: 0.218635 (Simulation time: 2 hr 39 min 22 sec) 
Heartbeat CPU 0 instructions: 570000003 cycles: 3160950709 heartbeat IPC: 0.202352 cumulative IPC: 0.180325 (Simulation time: 2 hr 39 min 36 sec) 
Heartbeat CPU 2 instructions: 870000001 cycles: 3171581608 heartbeat IPC: 0.271129 cumulative IPC: 0.274311 (Simulation time: 2 hr 40 min 7 sec) 
Heartbeat CPU 5 instructions: 320000000 cycles: 3173920312 heartbeat IPC: 0.102092 cumulative IPC: 0.100822 (Simulation time: 2 hr 40 min 14 sec) 
Heartbeat CPU 3 instructions: 560000000 cycles: 3190088766 heartbeat IPC: 0.185096 cumulative IPC: 0.175544 (Simulation time: 2 hr 41 min 3 sec) 
Heartbeat CPU 7 instructions: 410000000 cycles: 3197396481 heartbeat IPC: 0.127219 cumulative IPC: 0.128229 (Simulation time: 2 hr 41 min 25 sec) 
Heartbeat CPU 2 instructions: 880000000 cycles: 3198421674 heartbeat IPC: 0.372577 cumulative IPC: 0.275136 (Simulation time: 2 hr 41 min 28 sec) 
Heartbeat CPU 4 instructions: 320000000 cycles: 3212239378 heartbeat IPC: 0.0992462 cumulative IPC: 0.099619 (Simulation time: 2 hr 42 min 9 sec) 
Heartbeat CPU 0 instructions: 580000000 cycles: 3214510474 heartbeat IPC: 0.186707 cumulative IPC: 0.180432 (Simulation time: 2 hr 42 min 16 sec) 
Heartbeat CPU 2 instructions: 890000002 cycles: 3224067595 heartbeat IPC: 0.389926 cumulative IPC: 0.276049 (Simulation time: 2 hr 42 min 46 sec) 
Heartbeat CPU 6 instructions: 390000000 cycles: 3229223105 heartbeat IPC: 0.122517 cumulative IPC: 0.120772 (Simulation time: 2 hr 43 min 0 sec) 
*** Reached end of trace for Core: 1 Repeating trace: /data/behnam/ChampSim/tracer/behnam_trace/streaming_phase0_core1.trace.gz
Heartbeat CPU 1 instructions: 700000000 cycles: 3235652328 heartbeat IPC: 0.125465 cumulative IPC: 0.21634 (Simulation time: 2 hr 43 min 17 sec) 
Heartbeat CPU 3 instructions: 570000002 cycles: 3244302731 heartbeat IPC: 0.184454 cumulative IPC: 0.175693 (Simulation time: 2 hr 43 min 47 sec) 
Heartbeat CPU 1 instructions: 710000003 cycles: 3254407280 heartbeat IPC: 0.533193 cumulative IPC: 0.218166 (Simulation time: 2 hr 44 min 21 sec) 
Heartbeat CPU 0 instructions: 590000000 cycles: 3269071805 heartbeat IPC: 0.18328 cumulative IPC: 0.180479 (Simulation time: 2 hr 45 min 4 sec) 
*** Reached end of trace for Core: 2 Repeating trace: /data/behnam/ChampSim/tracer/behnam_trace/streaming_phase0_core2.trace.gz
Heartbeat CPU 2 instructions: 900000000 cycles: 3271754895 heartbeat IPC: 0.209699 cumulative IPC: 0.275082 (Simulation time: 2 hr 45 min 13 sec) 
Heartbeat CPU 5 instructions: 330000000 cycles: 3273037287 heartbeat IPC: 0.100891 cumulative IPC: 0.100824 (Simulation time: 2 hr 45 min 17 sec) 
Heartbeat CPU 7 instructions: 420000000 cycles: 3275696734 heartbeat IPC: 0.127714 cumulative IPC: 0.128217 (Simulation time: 2 hr 45 min 27 sec) 
Heartbeat CPU 2 instructions: 910000002 cycles: 3289196679 heartbeat IPC: 0.573336 cumulative IPC: 0.276663 (Simulation time: 2 hr 46 min 15 sec) 
Heartbeat CPU 3 instructions: 580000000 cycles: 3297892699 heartbeat IPC: 0.186602 cumulative IPC: 0.17587 (Simulation time: 2 hr 46 min 44 sec) 
Heartbeat CPU 1 instructions: 720000000 cycles: 3308213277 heartbeat IPC: 0.185853 cumulative IPC: 0.21764 (Simulation time: 2 hr 47 min 18 sec) 
*** Reached end of trace for Core: 6 Repeating trace: /data/behnam/ChampSim/tracer/behnam_trace/cloud9_phase0_core2.trace.gz
Heartbeat CPU 6 instructions: 400000000 cycles: 3310815938 heartbeat IPC: 0.12256 cumulative IPC: 0.120816 (Simulation time: 2 hr 47 min 26 sec) 
Heartbeat CPU 4 instructions: 330000003 cycles: 3313329089 heartbeat IPC: 0.0989221 cumulative IPC: 0.0995977 (Simulation time: 2 hr 47 min 34 sec) 
Heartbeat CPU 2 instructions: 920000000 cycles: 3313715782 heartbeat IPC: 0.407845 cumulative IPC: 0.277634 (Simulation time: 2 hr 47 min 35 sec) 
*** Reached end of trace for Core: 0 Repeating trace: /data/behnam/ChampSim/tracer/behnam_trace/streaming_phase0_core0.trace.gz
Heartbeat CPU 0 instructions: 600000000 cycles: 3321929063 heartbeat IPC: 0.189189 cumulative IPC: 0.180618 (Simulation time: 2 hr 48 min 1 sec) 
Heartbeat CPU 3 instructions: 590000001 cycles: 3343876460 heartbeat IPC: 0.217468 cumulative IPC: 0.176442 (Simulation time: 2 hr 49 min 14 sec) 
Heartbeat CPU 0 instructions: 610000000 cycles: 3345302260 heartbeat IPC: 0.427841 cumulative IPC: 0.182345 (Simulation time: 2 hr 49 min 18 sec) 
Heartbeat CPU 7 instructions: 430000002 cycles: 3353465927 heartbeat IPC: 0.128586 cumulative IPC: 0.128226 (Simulation time: 2 hr 49 min 41 sec) 
Heartbeat CPU 1 instructions: 730000001 cycles: 3362596123 heartbeat IPC: 0.183882 cumulative IPC: 0.217094 (Simulation time: 2 hr 50 min 6 sec) 
Heartbeat CPU 2 instructions: 930000002 cycles: 3367612149 heartbeat IPC: 0.185541 cumulative IPC: 0.27616 (Simulation time: 2 hr 50 min 20 sec) 
Heartbeat CPU 5 instructions: 340000000 cycles: 3373611318 heartbeat IPC: 0.0994292 cumulative IPC: 0.100782 (Simulation time: 2 hr 50 min 36 sec) 
Heartbeat CPU 6 instructions: 410000000 cycles: 3394449409 heartbeat IPC: 0.119569 cumulative IPC: 0.120785 (Simulation time: 2 hr 51 min 40 sec) 
*** Reached end of trace for Core: 3 Repeating trace: /data/behnam/ChampSim/tracer/behnam_trace/streaming_phase0_core3.trace.gz
Heartbeat CPU 3 instructions: 600000000 cycles: 3398261293 heartbeat IPC: 0.183875 cumulative IPC: 0.176561 (Simulation time: 2 hr 51 min 50 sec) 
Heartbeat CPU 0 instructions: 620000000 cycles: 3399306509 heartbeat IPC: 0.185171 cumulative IPC: 0.18239 (Simulation time: 2 hr 51 min 54 sec) 
Heartbeat CPU 2 instructions: 940000000 cycles: 3411211274 heartbeat IPC: 0.229362 cumulative IPC: 0.275562 (Simulation time: 2 hr 52 min 31 sec) 
Heartbeat CPU 4 instructions: 340000000 cycles: 3413035188 heartbeat IPC: 0.100295 cumulative IPC: 0.0996181 (Simulation time: 2 hr 52 min 36 sec) 
Heartbeat CPU 1 instructions: 740000000 cycles: 3416460900 heartbeat IPC: 0.18565 cumulative IPC: 0.216598 (Simulation time: 2 hr 52 min 45 sec) 
Heartbeat CPU 7 instructions: 440000000 cycles: 3431192921 heartbeat IPC: 0.128655 cumulative IPC: 0.128235 (Simulation time: 2 hr 53 min 27 sec) 
Heartbeat CPU 3 instructions: 610000000 cycles: 3432756061 heartbeat IPC: 0.289899 cumulative IPC: 0.1777 (Simulation time: 2 hr 53 min 32 sec) 
Heartbeat CPU 3 instructions: 620000000 cycles: 3452779707 heartbeat IPC: 0.49941 cumulative IPC: 0.179565 (Simulation time: 2 hr 54 min 41 sec) 
Heartbeat CPU 0 instructions: 630000001 cycles: 3453681588 heartbeat IPC: 0.183908 cumulative IPC: 0.182414 (Simulation time: 2 hr 54 min 44 sec) 
Heartbeat CPU 2 instructions: 950000000 cycles: 3457097875 heartbeat IPC: 0.217929 cumulative IPC: 0.274797 (Simulation time: 2 hr 54 min 55 sec) 
Heartbeat CPU 1 instructions: 750000002 cycles: 3469775930 heartbeat IPC: 0.187564 cumulative IPC: 0.216152 (Simulation time: 2 hr 55 min 38 sec) 
Heartbeat CPU 5 instructions: 350000002 cycles: 3471101303 heartbeat IPC: 0.102575 cumulative IPC: 0.100833 (Simulation time: 2 hr 55 min 42 sec) 
Heartbeat CPU 6 instructions: 420000000 cycles: 3477448599 heartbeat IPC: 0.120483 cumulative IPC: 0.120778 (Simulation time: 2 hr 56 min 4 sec) 
Heartbeat CPU 2 instructions: 960000000 cycles: 3499040975 heartbeat IPC: 0.238418 cumulative IPC: 0.274361 (Simulation time: 2 hr 57 min 0 sec) 
Heartbeat CPU 1 instructions: 760000000 cycles: 3506244282 heartbeat IPC: 0.27421 cumulative IPC: 0.216756 (Simulation time: 2 hr 57 min 20 sec) 
Heartbeat CPU 0 instructions: 640000000 cycles: 3508262772 heartbeat IPC: 0.183213 cumulative IPC: 0.182426 (Simulation time: 2 hr 57 min 26 sec) 
Heartbeat CPU 7 instructions: 450000001 cycles: 3508965189 heartbeat IPC: 0.128581 cumulative IPC: 0.128243 (Simulation time: 2 hr 57 min 29 sec) 
Heartbeat CPU 4 instructions: 350000003 cycles: 3513277743 heartbeat IPC: 0.0997581 cumulative IPC: 0.0996221 (Simulation time: 2 hr 57 min 45 sec) 
Heartbeat CPU 2 instructions: 970000002 cycles: 3535537118 heartbeat IPC: 0.274002 cumulative IPC: 0.274357 (Simulation time: 2 hr 58 min 49 sec) 
Heartbeat CPU 3 instructions: 630000000 cycles: 3535897906 heartbeat IPC: 0.120311 cumulative IPC: 0.178173 (Simulation time: 2 hr 58 min 50 sec) 
Heartbeat CPU 1 instructions: 770000002 cycles: 3542627001 heartbeat IPC: 0.274856 cumulative IPC: 0.217353 (Simulation time: 2 hr 59 min 10 sec) 
Heartbeat CPU 6 instructions: 430000001 cycles: 3560824478 heartbeat IPC: 0.119939 cumulative IPC: 0.120759 (Simulation time: 3 hr 0 min 4 sec) 
Heartbeat CPU 2 instructions: 980000000 cycles: 3561870670 heartbeat IPC: 0.379744 cumulative IPC: 0.275136 (Simulation time: 3 hr 0 min 8 sec) 
Heartbeat CPU 5 instructions: 360000000 cycles: 3570372495 heartbeat IPC: 0.100734 cumulative IPC: 0.10083 (Simulation time: 3 hr 0 min 36 sec) 
Heartbeat CPU 1 instructions: 780000000 cycles: 3578295369 heartbeat IPC: 0.28036 cumulative IPC: 0.217981 (Simulation time: 3 hr 0 min 59 sec) 
Heartbeat CPU 7 instructions: 460000000 cycles: 3586640223 heartbeat IPC: 0.128741 cumulative IPC: 0.128254 (Simulation time: 3 hr 1 min 24 sec) 
Heartbeat CPU 2 instructions: 990000002 cycles: 3587650976 heartbeat IPC: 0.387893 cumulative IPC: 0.275947 (Simulation time: 3 hr 1 min 27 sec) 
Heartbeat CPU 0 instructions: 650000000 cycles: 3588515872 heartbeat IPC: 0.124606 cumulative IPC: 0.181133 (Simulation time: 3 hr 1 min 30 sec) 
Heartbeat CPU 4 instructions: 360000000 cycles: 3614752494 heartbeat IPC: 0.0985467 cumulative IPC: 0.0995919 (Simulation time: 3 hr 2 min 41 sec) 
Heartbeat CPU 1 instructions: 790000000 cycles: 3617873890 heartbeat IPC: 0.252662 cumulative IPC: 0.21836 (Simulation time: 3 hr 2 min 48 sec) 
Heartbeat CPU 3 instructions: 640000000 cycles: 3630731442 heartbeat IPC: 0.105448 cumulative IPC: 0.176273 (Simulation time: 3 hr 3 min 21 sec) 
*** Reached end of trace for Core: 2 Repeating trace: /data/behnam/ChampSim/tracer/behnam_trace/streaming_phase0_core2.trace.gz
Heartbeat CPU 2 instructions: 1000000000 cycles: 3635132437 heartbeat IPC: 0.210608 cumulative IPC: 0.275093 (Simulation time: 3 hr 3 min 34 sec) 
Finished CPU 2 instructions: 1000000003 cycles: 3635132418 cumulative IPC: 0.275093 (Simulation time: 3 hr 3 min 34 sec) 
Heartbeat CPU 6 instructions: 440000000 cycles: 3645327312 heartbeat IPC: 0.118339 cumulative IPC: 0.120702 (Simulation time: 3 hr 4 min 7 sec) 
Heartbeat CPU 2 instructions: 1010000000 cycles: 3652596351 heartbeat IPC: 0.572609 cumulative IPC: 0.276516 (Simulation time: 3 hr 4 min 30 sec) 
Heartbeat CPU 7 instructions: 470000002 cycles: 3664485948 heartbeat IPC: 0.128459 cumulative IPC: 0.128258 (Simulation time: 3 hr 5 min 5 sec) 
Heartbeat CPU 0 instructions: 660000000 cycles: 3664767081 heartbeat IPC: 0.131145 cumulative IPC: 0.180093 (Simulation time: 3 hr 5 min 6 sec) 
Heartbeat CPU 5 instructions: 370000000 cycles: 3670262904 heartbeat IPC: 0.10011 cumulative IPC: 0.10081 (Simulation time: 3 hr 5 min 22 sec) 
Heartbeat CPU 2 instructions: 1020000000 cycles: 3677087937 heartbeat IPC: 0.408303 cumulative IPC: 0.277393 (Simulation time: 3 hr 5 min 43 sec) 
*** Reached end of trace for Core: 1 Repeating trace: /data/behnam/ChampSim/tracer/behnam_trace/streaming_phase0_core1.trace.gz
Heartbeat CPU 1 instructions: 800000000 cycles: 3697331290 heartbeat IPC: 0.125854 cumulative IPC: 0.216372 (Simulation time: 3 hr 6 min 42 sec) 
Heartbeat CPU 3 instructions: 650000000 cycles: 3702103915 heartbeat IPC: 0.14011 cumulative IPC: 0.175576 (Simulation time: 3 hr 6 min 59 sec) 
Heartbeat CPU 0 instructions: 670000001 cycles: 3714171106 heartbeat IPC: 0.202413 cumulative IPC: 0.18039 (Simulation time: 3 hr 7 min 41 sec) 
Heartbeat CPU 4 instructions: 370000003 cycles: 3714420648 heartbeat IPC: 0.100333 cumulative IPC: 0.0996118 (Simulation time: 3 hr 7 min 41 sec) 
Heartbeat CPU 1 instructions: 810000000 cycles: 3716209351 heartbeat IPC: 0.529715 cumulative IPC: 0.217964 (Simulation time: 3 hr 7 min 46 sec) 
Heartbeat CPU 6 instructions: 450000002 cycles: 3729774079 heartbeat IPC: 0.118418 cumulative IPC: 0.120651 (Simulation time: 3 hr 8 min 23 sec) 
Heartbeat CPU 2 instructions: 1030000002 cycles: 3731161755 heartbeat IPC: 0.184932 cumulative IPC: 0.276053 (Simulation time: 3 hr 8 min 28 sec) 
Heartbeat CPU 7 instructions: 480000000 cycles: 3742595350 heartbeat IPC: 0.128026 cumulative IPC: 0.128253 (Simulation time: 3 hr 8 min 59 sec) 
Heartbeat CPU 3 instructions: 660000000 cycles: 3756078416 heartbeat IPC: 0.185273 cumulative IPC: 0.175715 (Simulation time: 3 hr 9 min 41 sec) 
Heartbeat CPU 0 instructions: 680000000 cycles: 3767608450 heartbeat IPC: 0.187135 cumulative IPC: 0.180486 (Simulation time: 3 hr 10 min 13 sec) 
Heartbeat CPU 5 instructions: 380000000 cycles: 3768311977 heartbeat IPC: 0.10199 cumulative IPC: 0.100841 (Simulation time: 3 hr 10 min 15 sec) 
Heartbeat CPU 1 instructions: 820000000 cycles: 3769985863 heartbeat IPC: 0.185955 cumulative IPC: 0.217507 (Simulation time: 3 hr 10 min 19 sec) 
Heartbeat CPU 2 instructions: 1040000000 cycles: 3774990633 heartbeat IPC: 0.22816 cumulative IPC: 0.275497 (Simulation time: 3 hr 10 min 33 sec) 
Heartbeat CPU 3 instructions: 670000002 cycles: 3810145867 heartbeat IPC: 0.184954 cumulative IPC: 0.175846 (Simulation time: 3 hr 12 min 10 sec) 
Heartbeat CPU 6 instructions: 460000000 cycles: 3812355073 heartbeat IPC: 0.121093 cumulative IPC: 0.12066 (Simulation time: 3 hr 12 min 17 sec) 
Heartbeat CPU 4 instructions: 380000000 cycles: 3814449965 heartbeat IPC: 0.0999707 cumulative IPC: 0.0996212 (Simulation time: 3 hr 12 min 23 sec) 
Heartbeat CPU 2 instructions: 1050000002 cycles: 3820347747 heartbeat IPC: 0.220473 cumulative IPC: 0.274844 (Simulation time: 3 hr 12 min 43 sec) 
Heartbeat CPU 7 instructions: 490000003 cycles: 3820627750 heartbeat IPC: 0.128152 cumulative IPC: 0.128251 (Simulation time: 3 hr 12 min 44 sec) 
Heartbeat CPU 0 instructions: 690000000 cycles: 3822118984 heartbeat IPC: 0.183451 cumulative IPC: 0.180528 (Simulation time: 3 hr 12 min 49 sec) 
Heartbeat CPU 1 instructions: 830000001 cycles: 3824379706 heartbeat IPC: 0.183844 cumulative IPC: 0.217029 (Simulation time: 3 hr 12 min 56 sec) 
[...]
LLC WRITEBACK ACCESS:    3587424  HIT:    3585322  MISS:       2102

CPU 5 cumulative IPC: 0.100824 instructions: 1012065028 cycles: 10037935542
L1D TOTAL     ACCESS:  173906617  HIT:  165575432  MISS:    8331185
L1D LOAD      ACCESS:  104932780  HIT:   96999816  MISS:    7932964
L1D RFO       ACCESS:   68973837  HIT:   68575616  MISS:     398221
L1D PREFETCH  ACCESS:          0  HIT:          0  MISS:          0
L1D WRITEBACK ACCESS:          0  HIT:          0  MISS:          0
L1I TOTAL     ACCESS:  277560023  HIT:  277472835  MISS:      87188
L1I LOAD      ACCESS:  277560023  HIT:  277472835  MISS:      87188
L1I RFO       ACCESS:          0  HIT:          0  MISS:          0
L1I PREFETCH  ACCESS:          0  HIT:          0  MISS:          0
L1I WRITEBACK ACCESS:          0  HIT:          0  MISS:          0
L2C TOTAL     ACCESS:   13427197  HIT:    7129622  MISS:    6297575
L2C LOAD      ACCESS:    8020131  HIT:    2047624  MISS:    5972507
L2C RFO       ACCESS:     398204  HIT:      83678  MISS:     314526
L2C PREFETCH  ACCESS:          0  HIT:          0  MISS:          0
L2C WRITEBACK ACCESS:    5008862  HIT:    4998320  MISS:      10542
LLC TOTAL     ACCESS:   10094966  HIT:    7444668  MISS:    2650298
LLC LOAD      ACCESS:    5972506  HIT:    3472463  MISS:    2500043
LLC RFO       ACCESS:     314526  HIT:     166096  MISS:     148430
LLC PREFETCH  ACCESS:          0  HIT:          0  MISS:          0
LLC WRITEBACK ACCESS:    3807934  HIT:    3806109  MISS:       1825

CPU 6 cumulative IPC: 0.120794 instructions: 1212522311 cycles: 10037935542
L1D TOTAL     ACCESS:  195698305  HIT:  192997801  MISS:    2700504
L1D LOAD      ACCESS:  121081816  HIT:  118387993  MISS:    2693823
L1D RFO       ACCESS:   74616489  HIT:   74609808  MISS:       6681
L1D PREFETCH  ACCESS:          0  HIT:          0  MISS:          0
L1D WRITEBACK ACCESS:          0  HIT:          0  MISS:          0
L1I TOTAL     ACCESS:  319759703  HIT:  319752328  MISS:       7375
L1I LOAD      ACCESS:  319759703  HIT:  319752328  MISS:       7375
L1I RFO       ACCESS:          0  HIT:          0  MISS:          0
L1I PREFETCH  ACCESS:          0  HIT:          0  MISS:          0
L1I WRITEBACK ACCESS:          0  HIT:          0  MISS:          0
L2C TOTAL     ACCESS:    3903544  HIT:    1425452  MISS:    2478092
L2C LOAD      ACCESS:    2701196  HIT:     230042  MISS:    2471154
L2C RFO       ACCESS:       6681  HIT:        737  MISS:       5944
L2C PREFETCH  ACCESS:          0  HIT:          0  MISS:          0
L2C WRITEBACK ACCESS:    1195667  HIT:    1194673  MISS:        994
LLC TOTAL     ACCESS:    3635299  HIT:    1699414  MISS:    1935885
LLC LOAD      ACCESS:    2471154  HIT:     547203  MISS:    1923951
LLC RFO       ACCESS:       5944  HIT:        820  MISS:       5124
LLC PREFETCH  ACCESS:          0  HIT:          0  MISS:          0
LLC WRITEBACK ACCESS:    1158201  HIT:    1151391  MISS:       6810

CPU 7 cumulative IPC: 0.128239 instructions: 1287254665 cycles: 10037935542
L1D TOTAL     ACCESS:  201562305  HIT:  198752112  MISS:    2810193
L1D LOAD      ACCESS:  124100304  HIT:  121293316  MISS:    2806988
L1D RFO       ACCESS:   77462001  HIT:   77458796  MISS:       3205
L1D PREFETCH  ACCESS:          0  HIT:          0  MISS:          0
L1D WRITEBACK ACCESS:          0  HIT:          0  MISS:          0
L1I TOTAL     ACCESS:  342879221  HIT:  342878950  MISS:        271
L1I LOAD      ACCESS:  342879221  HIT:  342878950  MISS:        271
L1I RFO       ACCESS:          0  HIT:          0  MISS:          0
L1I PREFETCH  ACCESS:          0  HIT:          0  MISS:          0
L1I WRITEBACK ACCESS:          0  HIT:          0  MISS:          0
L2C TOTAL     ACCESS:    4064323  HIT:    1501511  MISS:    2562812
L2C LOAD      ACCESS:    2807259  HIT:     248220  MISS:    2559039
L2C RFO       ACCESS:       3205  HIT:        301  MISS:       2904
L2C PREFETCH  ACCESS:          0  HIT:          0  MISS:          0
L2C WRITEBACK ACCESS:    1253859  HIT:    1252990  MISS:        869
LLC TOTAL     ACCESS:    3776513  HIT:    1772251  MISS:    2004262
LLC LOAD      ACCESS:    2559039  HIT:     563195  MISS:    1995844
LLC RFO       ACCESS:       2904  HIT:        157  MISS:       2747
LLC PREFETCH  ACCESS:          0  HIT:          0  MISS:          0
LLC WRITEBACK ACCESS:    1214570  HIT:    1208899  MISS:       5671

Region of Interest Statistics

CPU 0 cumulative IPC: 0.180654 instructions: 1000000000 cycles: 5535427916
L1D TOTAL     ACCESS:  156765561  HIT:  136196156  MISS:   20569405
L1D LOAD      ACCESS:   94024711  HIT:   77952208  MISS:   16072503
L1D RFO       ACCESS:   62740850  HIT:   58243948  MISS:    4496902
L1D PREFETCH  ACCESS:          0  HIT:          0  MISS:          0
L1D WRITEBACK ACCESS:          0  HIT:          0  MISS:          0
L1D PREFETCH  REQUESTED:          0  ISSUED:          0  USEFUL:          0  USELESS:          0
L1I TOTAL     ACCESS:  224802230  HIT:  192631136  MISS:   32171094
L1I LOAD      ACCESS:  224802230  HIT:  192631136  MISS:   32171094
L1I RFO       ACCESS:          0  HIT:          0  MISS:          0
L1I PREFETCH  ACCESS:          0  HIT:          0  MISS:          0
L1I WRITEBACK ACCESS:          0  HIT:          0  MISS:          0
L1I PREFETCH  REQUESTED:          0  ISSUED:          0  USEFUL:          0  USELESS:          0
L2C TOTAL     ACCESS:   59817593  HIT:   49625558  MISS:   10192035
L2C LOAD      ACCESS:   48243092  HIT:   40071513  MISS:    8171579
L2C RFO       ACCESS:    4494301  HIT:    2530264  MISS:    1964037
L2C PREFETCH  ACCESS:          0  HIT:          0  MISS:          0
L2C WRITEBACK ACCESS:    7080200  HIT:    7023781  MISS:      56419
L2C PREFETCH  REQUESTED:          0  ISSUED:          0  USEFUL:          0  USELESS:          0
LLC TOTAL     ACCESS:   13326770  HIT:    9458812  MISS:    3867958
LLC LOAD      ACCESS:    8171544  HIT:    5086783  MISS:    3084761
LLC RFO       ACCESS:    1963981  HIT:    1181578  MISS:     782403
LLC PREFETCH  ACCESS:          0  HIT:          0  MISS:          0
LLC WRITEBACK ACCESS:    3191245  HIT:    3190451  MISS:        794
LLC PREFETCH  REQUESTED:          0  ISSUED:          0  USEFUL:          0  USELESS:          0
Major fault: 0 Minor fault: 17423

CPU 1 cumulative IPC: 0.216369 instructions: 1000000000 cycles: 4621736476
L1D TOTAL     ACCESS:  131346552  HIT:  113814158  MISS:   17532394
L1D LOAD      ACCESS:   79925294  HIT:   66289664  MISS:   13635630
L1D RFO       ACCESS:   51421258  HIT:   47524494  MISS:    3896764
L1D PREFETCH  ACCESS:          0  HIT:          0  MISS:          0
L1D WRITEBACK ACCESS:          0  HIT:          0  MISS:          0
L1D PREFETCH  REQUESTED:          0  ISSUED:          0  USEFUL:          0  USELESS:          0
L1I TOTAL     ACCESS:  209422033  HIT:  181963029  MISS:   27459004
L1I LOAD      ACCESS:  209422033  HIT:  181963029  MISS:   27459004
L1I RFO       ACCESS:          0  HIT:          0  MISS:          0
L1I PREFETCH  ACCESS:          0  HIT:          0  MISS:          0
L1I WRITEBACK ACCESS:          0  HIT:          0  MISS:          0
L1I PREFETCH  REQUESTED:          0  ISSUED:          0  USEFUL:          0  USELESS:          0
L2C TOTAL     ACCESS:   50857122  HIT:   41166696  MISS:    9690426
L2C LOAD      ACCESS:   41094155  HIT:   33205337  MISS:    7888818
L2C RFO       ACCESS:    3895149  HIT:    2149652  MISS:    1745497
L2C PREFETCH  ACCESS:          0  HIT:          0  MISS:          0
L2C WRITEBACK ACCESS:    5867818  HIT:    5811707  MISS:      56111
L2C PREFETCH  REQUESTED:          0  ISSUED:          0  USEFUL:          0  USELESS:          0
LLC TOTAL     ACCESS:   12236012  HIT:    7150473  MISS:    5085539
LLC LOAD      ACCESS:    7888770  HIT:    3567397  MISS:    4321373
LLC RFO       ACCESS:    1745456  HIT:     981854  MISS:     763602
LLC PREFETCH  ACCESS:          0  HIT:          0  MISS:          0
LLC WRITEBACK ACCESS:    2601786  HIT:    2601222  MISS:        564
LLC PREFETCH  REQUESTED:          0  ISSUED:          0  USEFUL:          0  USELESS:          0
Major fault: 0 Minor fault: 19035

CPU 2 cumulative IPC: 0.275093 instructions: 1000000003 cycles: 3635132418
L1D TOTAL     ACCESS:   92031869  HIT:   78931535  MISS:   13100334
L1D LOAD      ACCESS:   63036507  HIT:   52003505  MISS:   11033002
L1D RFO       ACCESS:   28995362  HIT:   26928030  MISS:    2067332
L1D PREFETCH  ACCESS:          0  HIT:          0  MISS:          0
L1D WRITEBACK ACCESS:          0  HIT:          0  MISS:          0
L1D PREFETCH  REQUESTED:          0  ISSUED:          0  USEFUL:          0  USELESS:          0
L1I TOTAL     ACCESS:  186347062  HIT:  173526647  MISS:   12820415
L1I LOAD      ACCESS:  186347062  HIT:  173526647  MISS:   12820415
L1I RFO       ACCESS:          0  HIT:          0  MISS:          0
L1I PREFETCH  ACCESS:          0  HIT:          0  MISS:          0
L1I WRITEBACK ACCESS:          0  HIT:          0  MISS:          0
L1I PREFETCH  REQUESTED:          0  ISSUED:          0  USEFUL:          0  USELESS:          0
L2C TOTAL     ACCESS:   29726327  HIT:   20867030  MISS:    8859297
L2C LOAD      ACCESS:   23852872  HIT:   15766024  MISS:    8086848
L2C RFO       ACCESS:    2066683  HIT:    1338413  MISS:     728270
L2C PREFETCH  ACCESS:          0  HIT:          0  MISS:          0
L2C WRITEBACK ACCESS:    3806772  HIT:    3762593  MISS:      44179
L2C PREFETCH  REQUESTED:          0  ISSUED:          0  USEFUL:          0  USELESS:          0
LLC TOTAL     ACCESS:   10342550  HIT:    4270613  MISS:    6071937
LLC LOAD      ACCESS:    8086676  HIT:    2338674  MISS:    5748002
LLC RFO       ACCESS:     728145  HIT:     404944  MISS:     323201
LLC PREFETCH  ACCESS:          0  HIT:          0  MISS:          0
LLC WRITEBACK ACCESS:    1527729  HIT:    1526995  MISS:        734
LLC PREFETCH  REQUESTED:          0  ISSUED:          0  USEFUL:          0  USELESS:          0
Major fault: 0 Minor fault: 17714

CPU 3 cumulative IPC: 0.176486 instructions: 1000000000 cycles: 5666171214
L1D TOTAL     ACCESS:  142117650  HIT:  123144961  MISS:   18972689
L1D LOAD      ACCESS:   86986868  HIT:   71514420  MISS:   15472448
L1D RFO       ACCESS:   55130782  HIT:   51630541  MISS:    3500241
L1D PREFETCH  ACCESS:          0  HIT:          0  MISS:          0
L1D WRITEBACK ACCESS:          0  HIT:          0  MISS:          0
L1D PREFETCH  REQUESTED:          0  ISSUED:          0  USEFUL:          0  USELESS:          0
L1I TOTAL     ACCESS:  220806036  HIT:  196751545  MISS:   24054491
L1I LOAD      ACCESS:  220806036  HIT:  196751545  MISS:   24054491
L1I RFO       ACCESS:          0  HIT:          0  MISS:          0
L1I PREFETCH  ACCESS:          0  HIT:          0  MISS:          0
L1I WRITEBACK ACCESS:          0  HIT:          0  MISS:          0
L1I PREFETCH  REQUESTED:          0  ISSUED:          0  USEFUL:          0  USELESS:          0
L2C TOTAL     ACCESS:   49274195  HIT:   37239509  MISS:   12034686
L2C LOAD      ACCESS:   39525904  HIT:   29113872  MISS:   10412032
L2C RFO       ACCESS:    3498436  HIT:    1915735  MISS:    1582701
L2C PREFETCH  ACCESS:          0  HIT:          0  MISS:          0
L2C WRITEBACK ACCESS:    6249855  HIT:    6209902  MISS:      39953
L2C PREFETCH  REQUESTED:          0  ISSUED:          0  USEFUL:          0  USELESS:          0
LLC TOTAL     ACCESS:   15388464  HIT:   11304032  MISS:    4084432
LLC LOAD      ACCESS:   10412014  HIT:    6922130  MISS:    3489884
LLC RFO       ACCESS:    1582651  HIT:     988735  MISS:     593916
LLC PREFETCH  ACCESS:          0  HIT:          0  MISS:          0
LLC WRITEBACK ACCESS:    3393799  HIT:    3393167  MISS:        632
LLC PREFETCH  REQUESTED:          0  ISSUED:          0  USEFUL:          0  USELESS:          0
Major fault: 0 Minor fault: 15536

CPU 4 cumulative IPC: 0.0996221 instructions: 1000000000 cycles: 10037935542
L1D TOTAL     ACCESS:  171740906  HIT:  163785348  MISS:    7955558
L1D LOAD      ACCESS:  103014691  HIT:   95417285  MISS:    7597406
L1D RFO       ACCESS:   68726215  HIT:   68368063  MISS:     358152
L1D PREFETCH  ACCESS:          0  HIT:          0  MISS:          0
L1D WRITEBACK ACCESS:          0  HIT:          0  MISS:          0
L1D PREFETCH  REQUESTED:          0  ISSUED:          0  USEFUL:          0  USELESS:          0
L1I TOTAL     ACCESS:  284876573  HIT:  284792386  MISS:      84187
L1I LOAD      ACCESS:  284876573  HIT:  284792386  MISS:      84187
L1I RFO       ACCESS:          0  HIT:          0  MISS:          0
L1I PREFETCH  ACCESS:          0  HIT:          0  MISS:          0
L1I WRITEBACK ACCESS:          0  HIT:          0  MISS:          0
L1I PREFETCH  REQUESTED:          0  ISSUED:          0  USEFUL:          0  USELESS:          0
L2C TOTAL     ACCESS:   12811914  HIT:    6668142  MISS:    6143772
L2C LOAD      ACCESS:    7681556  HIT:    1830139  MISS:    5851417
L2C RFO       ACCESS:     358081  HIT:      76264  MISS:     281817
L2C PREFETCH  ACCESS:          0  HIT:          0  MISS:          0
L2C WRITEBACK ACCESS:    4772277  HIT:    4761739  MISS:      10538
L2C PREFETCH  REQUESTED:          0  ISSUED:          0  USEFUL:          0  USELESS:          0
LLC TOTAL     ACCESS:    9720654  HIT:    7035531  MISS:    2685123
LLC LOAD      ACCESS:    5851413  HIT:    3306136  MISS:    2545277
LLC RFO       ACCESS:     281817  HIT:     144073  MISS:     137744
LLC PREFETCH  ACCESS:          0  HIT:          0  MISS:          0
LLC WRITEBACK ACCESS:    3587424  HIT:    3585322  MISS:       2102
LLC PREFETCH  REQUESTED:          0  ISSUED:          0  USEFUL:          0  USELESS:          0
Major fault: 0 Minor fault: 1810

CPU 5 cumulative IPC: 0.100824 instructions: 1000000000 cycles: 9918285968
L1D TOTAL     ACCESS:  171823778  HIT:  163594343  MISS:    8229435
L1D LOAD      ACCESS:  103675731  HIT:   95839608  MISS:    7836123
L1D RFO       ACCESS:   68148047  HIT:   67754735  MISS:     393312
L1D PREFETCH  ACCESS:          0  HIT:          0  MISS:          0
L1D WRITEBACK ACCESS:          0  HIT:          0  MISS:          0
L1D PREFETCH  REQUESTED:          0  ISSUED:          0  USEFUL:          0  USELESS:          0
L1I TOTAL     ACCESS:  274264112  HIT:  274178602  MISS:      85510
L1I LOAD      ACCESS:  274264112  HIT:  274178602  MISS:      85510
L1I RFO       ACCESS:          0  HIT:          0  MISS:          0
L1I PREFETCH  ACCESS:          0  HIT:          0  MISS:          0
L1I WRITEBACK ACCESS:          0  HIT:          0  MISS:          0
L1I PREFETCH  REQUESTED:          0  ISSUED:          0  USEFUL:          0  USELESS:          0
L2C TOTAL     ACCESS:   13261157  HIT:    7041716  MISS:    6219441
L2C LOAD      ACCESS:    7921613  HIT:    2023280  MISS:    5898333
L2C RFO       ACCESS:     393295  HIT:      82600  MISS:     310695
L2C PREFETCH  ACCESS:          0  HIT:          0  MISS:          0
L2C WRITEBACK ACCESS:    4946249  HIT:    4935836  MISS:      10413
L2C PREFETCH  REQUESTED:          0  ISSUED:          0  USEFUL:          0  USELESS:          0
LLC TOTAL     ACCESS:    9968245  HIT:    7343396  MISS:    2624849
LLC LOAD      ACCESS:    5898332  HIT:    3422686  MISS:    2475646
LLC RFO       ACCESS:     310695  HIT:     163309  MISS:     147386
LLC PREFETCH  ACCESS:          0  HIT:          0  MISS:          0
LLC WRITEBACK ACCESS:    3759218  HIT:    3757401  MISS:       1817
LLC PREFETCH  REQUESTED:          0  ISSUED:          0  USEFUL:          0  USELESS:          0
Major fault: 0 Minor fault: 1756

CPU 6 cumulative IPC: 0.120805 instructions: 1000000002 cycles: 8277807186
L1D TOTAL     ACCESS:  161375349  HIT:  159148168  MISS:    2227181
L1D LOAD      ACCESS:   99852277  HIT:   97630454  MISS:    2221823
L1D RFO       ACCESS:   61523072  HIT:   61517714  MISS:       5358
L1D PREFETCH  ACCESS:          0  HIT:          0  MISS:          0
L1D WRITEBACK ACCESS:          0  HIT:          0  MISS:          0
L1D PREFETCH  REQUESTED:          0  ISSUED:          0  USEFUL:          0  USELESS:          0
L1I TOTAL     ACCESS:  263714249  HIT:  263708042  MISS:       6207
L1I LOAD      ACCESS:  263714249  HIT:  263708042  MISS:       6207
L1I RFO       ACCESS:          0  HIT:          0  MISS:          0
L1I PREFETCH  ACCESS:          0  HIT:          0  MISS:          0
L1I WRITEBACK ACCESS:          0  HIT:          0  MISS:          0
L1I PREFETCH  REQUESTED:          0  ISSUED:          0  USEFUL:          0  USELESS:          0
L2C TOTAL     ACCESS:    3218709  HIT:    1174777  MISS:    2043932
L2C LOAD      ACCESS:    2228028  HIT:     189668  MISS:    2038360
L2C RFO       ACCESS:       5358  HIT:        586  MISS:       4772
L2C PREFETCH  ACCESS:          0  HIT:          0  MISS:          0
L2C WRITEBACK ACCESS:     985323  HIT:     984523  MISS:        800
L2C PREFETCH  REQUESTED:          0  ISSUED:          0  USEFUL:          0  USELESS:          0
LLC TOTAL     ACCESS:    2997277  HIT:    1400445  MISS:    1596832
LLC LOAD      ACCESS:    2038360  HIT:     451210  MISS:    1587150
LLC RFO       ACCESS:       4772  HIT:        644  MISS:       4128
LLC PREFETCH  ACCESS:          0  HIT:          0  MISS:          0
LLC WRITEBACK ACCESS:     954145  HIT:     948591  MISS:       5554
LLC PREFETCH  REQUESTED:          0  ISSUED:          0  USEFUL:          0  USELESS:          0
Major fault: 0 Minor fault: 2062

CPU 7 cumulative IPC: 0.128234 instructions: 1000000001 cycles: 7798221118
L1D TOTAL     ACCESS:  156582575  HIT:  154399388  MISS:    2183187
L1D LOAD      ACCESS:   96406863  HIT:   94226174  MISS:    2180689
L1D RFO       ACCESS:   60175712  HIT:   60173214  MISS:       2498
L1D PREFETCH  ACCESS:          0  HIT:          0  MISS:          0
L1D WRITEBACK ACCESS:          0  HIT:          0  MISS:          0
L1D PREFETCH  REQUESTED:          0  ISSUED:          0  USEFUL:          0  USELESS:          0
L1I TOTAL     ACCESS:  266362407  HIT:  266362136  MISS:        271
L1I LOAD      ACCESS:  266362407  HIT:  266362136  MISS:        271
L1I RFO       ACCESS:          0  HIT:          0  MISS:          0
L1I PREFETCH  ACCESS:          0  HIT:          0  MISS:          0
L1I WRITEBACK ACCESS:          0  HIT:          0  MISS:          0
L1I PREFETCH  REQUESTED:          0  ISSUED:          0  USEFUL:          0  USELESS:          0
L2C TOTAL     ACCESS:    3157483  HIT:    1166453  MISS:    1991030
L2C LOAD      ACCESS:    2180960  HIT:     192864  MISS:    1988096
L2C RFO       ACCESS:       2498  HIT:        240  MISS:       2258
L2C PREFETCH  ACCESS:          0  HIT:          0  MISS:          0
L2C WRITEBACK ACCESS:     974025  HIT:     973349  MISS:        676
L2C PREFETCH  REQUESTED:          0  ISSUED:          0  USEFUL:          0  USELESS:          0
LLC TOTAL     ACCESS:    2933462  HIT:    1375577  MISS:    1557885
LLC LOAD      ACCESS:    1988096  HIT:     436769  MISS:    1551327
LLC RFO       ACCESS:       2258  HIT:        123  MISS:       2135
LLC PREFETCH  ACCESS:          0  HIT:          0  MISS:          0
LLC WRITEBACK ACCESS:     943108  HIT:     938685  MISS:       4423
LLC PREFETCH  REQUESTED:          0  ISSUED:          0  USEFUL:          0  USELESS:          0
Major fault: 0 Minor fault: 1717
First and Last Hit Histograms
FIRST HIT:847305:349367:709406:250655:981578:281645:554618:236325:1006944:314784:670768:243067:1045133:266402:497782:232933:0:
LAST HIT:740653:336647:658680:221550:905422:259469:502966:201824:935287:297225:612976:210346:950124:240540:452605:198990:43656747:

DRAM Statistics
 CHANNEL 0
 RQ ROW_BUFFER_HIT:   12411241  ROW_BUFFER_MISS:   13280834
 DBUS_CONGESTED:   15682799
 WQ ROW_BUFFER_HIT:     484081  ROW_BUFFER_MISS:    5450715  FULL:          0

 CHANNEL 1
 RQ ROW_BUFFER_HIT:   12404086  ROW_BUFFER_MISS:   13261085
 DBUS_CONGESTED:   15682799
 WQ ROW_BUFFER_HIT:     482185  ROW_BUFFER_MISS:    5426093  FULL:          0

 AVG_CONGESTED_CYCLE: 13
