
*** ChampSim Multicore Out-of-Order Simulator ***

Warmup Instructions: 0
Simulation Instructions: 1000000
Number of CPUs: 4
LLC sets: 16384
LLC ways: 16
Off-chip DRAM Size: 8192 MB Channels: 2 Width: 64-bit Data Rate: 1600 MT/s

CPU 0 runs /data/behnam/ChampSim/tracer/behnam_trace/classification_phase0_core0.trace.gz
CPU 1 runs /data/behnam/ChampSim/tracer/behnam_trace/classification_phase0_core1.trace.gz
CPU 2 runs /data/behnam/ChampSim/tracer/behnam_trace/classification_phase0_core2.trace.gz
CPU 3 runs /data/behnam/ChampSim/tracer/behnam_trace/classification_phase0_core3.trace.gz
CPU 0 Bimodal branch predictor
CPU 1 Bimodal branch predictor
CPU 2 Bimodal branch predictor
CPU 3 Bimodal branch predictor
[ROB_ERROR] add_to_rob ip is zero index: 1 instr_id: 1 ip: 0
bimodal-no-no-lru-4core: src/ooo_cpu.cc:322: uint32_t O3_CPU::add_to_rob(ooo_model_instr*): Assertion `0' failed.
