
*** ChampSim Multicore Out-of-Order Simulator ***

Warmup Instructions: 0
Simulation Instructions: 1000000000
Number of CPUs: 4
LLC sets: 4096
LLC ways: 16
Off-chip DRAM Size: 8192 MB Channels: 2 Width: 64-bit Data Rate: 1600 MT/s

CPU 0 runs /data/behnam/ChampSim/tracer/behnam_trace/nutch_phase0_core0.trace.gz
CPU 1 runs /data/behnam/ChampSim/tracer/behnam_trace/nutch_phase0_core1.trace.gz
CPU 2 runs /data/behnam/ChampSim/tracer/behnam_trace/nutch_phase0_core2.trace.gz
CPU 3 runs /data/behnam/ChampSim/tracer/behnam_trace/nutch_phase0_core3.trace.gz
CPU 0 Bimodal branch predictor
CPU 1 Bimodal branch predictor
CPU 2 Bimodal branch predictor
CPU 3 Bimodal branch predictor
Initialize pLRU state
here
config wm table state
config cache line state

Warmup complete CPU 0 instructions: 11 cycles: 26 (Simulation time: 0 hr 0 min 0 sec) 
Warmup complete CPU 1 instructions: 1 cycles: 26 (Simulation time: 0 hr 0 min 0 sec) 
Warmup complete CPU 2 instructions: 15 cycles: 26 (Simulation time: 0 hr 0 min 0 sec) 
Warmup complete CPU 3 instructions: 1 cycles: 26 (Simulation time: 0 hr 0 min 0 sec) 

Heartbeat CPU 1 instructions: 10000002 cycles: 30040622 heartbeat IPC: 0.332883 cumulative IPC: 0.332883 (Simulation time: 0 hr 6 min 35 sec) 
Heartbeat CPU 3 instructions: 10000002 cycles: 31663839 heartbeat IPC: 0.315818 cumulative IPC: 0.315818 (Simulation time: 0 hr 7 min 6 sec) 
Heartbeat CPU 0 instructions: 10000001 cycles: 38120632 heartbeat IPC: 0.262325 cumulative IPC: 0.262325 (Simulation time: 0 hr 8 min 11 sec) 
Heartbeat CPU 2 instructions: 10000001 cycles: 38353655 heartbeat IPC: 0.260731 cumulative IPC: 0.260731 (Simulation time: 0 hr 8 min 13 sec) 
Heartbeat CPU 3 instructions: 20000000 cycles: 57890915 heartbeat IPC: 0.381285 cumulative IPC: 0.345477 (Simulation time: 0 hr 13 min 6 sec) 
Heartbeat CPU 1 instructions: 20000000 cycles: 63593091 heartbeat IPC: 0.298041 cumulative IPC: 0.3145 (Simulation time: 0 hr 14 min 4 sec) 
Heartbeat CPU 2 instructions: 20000000 cycles: 73505428 heartbeat IPC: 0.284481 cumulative IPC: 0.272089 (Simulation time: 0 hr 15 min 54 sec) 
Heartbeat CPU 0 instructions: 20000000 cycles: 73996660 heartbeat IPC: 0.278738 cumulative IPC: 0.270282 (Simulation time: 0 hr 16 min 5 sec) 
Heartbeat CPU 3 instructions: 30000001 cycles: 97188840 heartbeat IPC: 0.254466 cumulative IPC: 0.308677 (Simulation time: 0 hr 20 min 52 sec) 
Heartbeat CPU 1 instructions: 30000002 cycles: 103540720 heartbeat IPC: 0.250328 cumulative IPC: 0.289741 (Simulation time: 0 hr 22 min 6 sec) 
Heartbeat CPU 2 instructions: 30000002 cycles: 110149375 heartbeat IPC: 0.272896 cumulative IPC: 0.272357 (Simulation time: 0 hr 23 min 27 sec) 
Heartbeat CPU 0 instructions: 30000002 cycles: 115464091 heartbeat IPC: 0.241153 cumulative IPC: 0.259821 (Simulation time: 0 hr 24 min 27 sec) 
Heartbeat CPU 3 instructions: 40000000 cycles: 134647400 heartbeat IPC: 0.266962 cumulative IPC: 0.297072 (Simulation time: 0 hr 28 min 12 sec) 
Heartbeat CPU 1 instructions: 40000000 cycles: 142219973 heartbeat IPC: 0.258536 cumulative IPC: 0.281255 (Simulation time: 0 hr 29 min 53 sec) 
Heartbeat CPU 2 instructions: 40000000 cycles: 150294227 heartbeat IPC: 0.249098 cumulative IPC: 0.266145 (Simulation time: 0 hr 31 min 45 sec) 
Heartbeat CPU 0 instructions: 40000000 cycles: 152631199 heartbeat IPC: 0.269055 cumulative IPC: 0.26207 (Simulation time: 0 hr 32 min 9 sec) 
Heartbeat CPU 3 instructions: 50000001 cycles: 167285183 heartbeat IPC: 0.306393 cumulative IPC: 0.298891 (Simulation time: 0 hr 34 min 18 sec) 
Heartbeat CPU 1 instructions: 50000002 cycles: 176240526 heartbeat IPC: 0.29394 cumulative IPC: 0.283703 (Simulation time: 0 hr 35 min 33 sec) 
Heartbeat CPU 0 instructions: 50000003 cycles: 193596937 heartbeat IPC: 0.244107 cumulative IPC: 0.258269 (Simulation time: 0 hr 37 min 57 sec) 
Heartbeat CPU 2 instructions: 50000001 cycles: 194073158 heartbeat IPC: 0.22842 cumulative IPC: 0.257635 (Simulation time: 0 hr 38 min 1 sec) 
Heartbeat CPU 3 instructions: 60000000 cycles: 201838970 heartbeat IPC: 0.289404 cumulative IPC: 0.297267 (Simulation time: 0 hr 39 min 20 sec) 
Heartbeat CPU 1 instructions: 60000000 cycles: 214643268 heartbeat IPC: 0.260398 cumulative IPC: 0.279534 (Simulation time: 0 hr 41 min 14 sec) 
Heartbeat CPU 2 instructions: 60000000 cycles: 233237860 heartbeat IPC: 0.255332 cumulative IPC: 0.257248 (Simulation time: 0 hr 43 min 50 sec) 
Heartbeat CPU 0 instructions: 60000000 cycles: 235312707 heartbeat IPC: 0.239717 cumulative IPC: 0.25498 (Simulation time: 0 hr 44 min 6 sec) 
Heartbeat CPU 3 instructions: 70000001 cycles: 242339276 heartbeat IPC: 0.246912 cumulative IPC: 0.288851 (Simulation time: 0 hr 45 min 7 sec) 
Heartbeat CPU 1 instructions: 70000000 cycles: 254762609 heartbeat IPC: 0.249256 cumulative IPC: 0.274766 (Simulation time: 0 hr 46 min 54 sec) 
Heartbeat CPU 2 instructions: 70000002 cycles: 269948447 heartbeat IPC: 0.272401 cumulative IPC: 0.259309 (Simulation time: 0 hr 49 min 2 sec) 
Heartbeat CPU 0 instructions: 70000001 cycles: 273546127 heartbeat IPC: 0.261551 cumulative IPC: 0.255898 (Simulation time: 0 hr 49 min 38 sec) 
Heartbeat CPU 3 instructions: 80000000 cycles: 278721656 heartbeat IPC: 0.274858 cumulative IPC: 0.287025 (Simulation time: 0 hr 50 min 16 sec) 
Heartbeat CPU 1 instructions: 80000000 cycles: 293175535 heartbeat IPC: 0.260329 cumulative IPC: 0.272874 (Simulation time: 0 hr 52 min 7 sec) 
Heartbeat CPU 2 instructions: 80000000 cycles: 309820571 heartbeat IPC: 0.250802 cumulative IPC: 0.258214 (Simulation time: 0 hr 54 min 31 sec) 
Heartbeat CPU 0 instructions: 80000000 cycles: 312450367 heartbeat IPC: 0.257041 cumulative IPC: 0.256041 (Simulation time: 0 hr 54 min 57 sec) 
Heartbeat CPU 3 instructions: 90000001 cycles: 315655256 heartbeat IPC: 0.270756 cumulative IPC: 0.285121 (Simulation time: 0 hr 55 min 27 sec) 
Heartbeat CPU 1 instructions: 90000000 cycles: 326244271 heartbeat IPC: 0.3024 cumulative IPC: 0.275867 (Simulation time: 0 hr 57 min 10 sec) 
Heartbeat CPU 2 instructions: 90000002 cycles: 347259846 heartbeat IPC: 0.267099 cumulative IPC: 0.259172 (Simulation time: 0 hr 59 min 17 sec) 
Heartbeat CPU 0 instructions: 90000003 cycles: 349291088 heartbeat IPC: 0.271439 cumulative IPC: 0.257665 (Simulation time: 0 hr 59 min 30 sec) 
*** Reached end of trace for Core: 3 Repeating trace: /data/behnam/ChampSim/tracer/behnam_trace/nutch_phase0_core3.trace.gz
Heartbeat CPU 3 instructions: 100000000 cycles: 355582176 heartbeat IPC: 0.250458 cumulative IPC: 0.281229 (Simulation time: 1 hr 0 min 14 sec) 
*** Reached end of trace for Core: 1 Repeating trace: /data/behnam/ChampSim/tracer/behnam_trace/nutch_phase0_core1.trace.gz
Heartbeat CPU 1 instructions: 100000000 cycles: 363569848 heartbeat IPC: 0.267913 cumulative IPC: 0.27505 (Simulation time: 1 hr 1 min 26 sec) 
*** Reached end of trace for Core: 2 Repeating trace: /data/behnam/ChampSim/tracer/behnam_trace/nutch_phase0_core2.trace.gz
Heartbeat CPU 2 instructions: 100000000 cycles: 383525421 heartbeat IPC: 0.275744 cumulative IPC: 0.260739 (Simulation time: 1 hr 4 min 44 sec) 
*** Reached end of trace for Core: 0 Repeating trace: /data/behnam/ChampSim/tracer/behnam_trace/nutch_phase0_core0.trace.gz
Heartbeat CPU 0 instructions: 100000000 cycles: 386171974 heartbeat IPC: 0.271143 cumulative IPC: 0.258952 (Simulation time: 1 hr 5 min 4 sec) 
Heartbeat CPU 3 instructions: 110000002 cycles: 387009845 heartbeat IPC: 0.318191 cumulative IPC: 0.284231 (Simulation time: 1 hr 5 min 12 sec) 
Heartbeat CPU 1 instructions: 110000002 cycles: 393272326 heartbeat IPC: 0.336672 cumulative IPC: 0.279704 (Simulation time: 1 hr 5 min 54 sec) 
Heartbeat CPU 3 instructions: 120000000 cycles: 413188480 heartbeat IPC: 0.381991 cumulative IPC: 0.290424 (Simulation time: 1 hr 8 min 50 sec) 
Heartbeat CPU 2 instructions: 110000002 cycles: 421702224 heartbeat IPC: 0.261939 cumulative IPC: 0.260848 (Simulation time: 1 hr 9 min 41 sec) 
Heartbeat CPU 0 instructions: 110000000 cycles: 424110657 heartbeat IPC: 0.263583 cumulative IPC: 0.259366 (Simulation time: 1 hr 9 min 53 sec) 
Heartbeat CPU 1 instructions: 120000000 cycles: 426956268 heartbeat IPC: 0.296877 cumulative IPC: 0.281059 (Simulation time: 1 hr 10 min 2 sec) 
Heartbeat CPU 3 instructions: 130000000 cycles: 452635507 heartbeat IPC: 0.253505 cumulative IPC: 0.287207 (Simulation time: 1 hr 11 min 12 sec) 
Heartbeat CPU 2 instructions: 120000000 cycles: 457139793 heartbeat IPC: 0.282186 cumulative IPC: 0.262502 (Simulation time: 1 hr 11 min 23 sec) 
Heartbeat CPU 0 instructions: 120000000 cycles: 460215199 heartbeat IPC: 0.276973 cumulative IPC: 0.260748 (Simulation time: 1 hr 11 min 34 sec) 
Heartbeat CPU 1 instructions: 130000000 cycles: 467315771 heartbeat IPC: 0.247773 cumulative IPC: 0.278185 (Simulation time: 1 hr 11 min 52 sec) 
Heartbeat CPU 3 instructions: 140000000 cycles: 490381116 heartbeat IPC: 0.264931 cumulative IPC: 0.285492 (Simulation time: 1 hr 13 min 13 sec) 
Heartbeat CPU 2 instructions: 130000003 cycles: 494017400 heartbeat IPC: 0.271167 cumulative IPC: 0.263149 (Simulation time: 1 hr 13 min 28 sec) 
Heartbeat CPU 0 instructions: 130000002 cycles: 502001988 heartbeat IPC: 0.23931 cumulative IPC: 0.258963 (Simulation time: 1 hr 14 min 3 sec) 
Heartbeat CPU 1 instructions: 140000000 cycles: 506416013 heartbeat IPC: 0.255753 cumulative IPC: 0.276453 (Simulation time: 1 hr 14 min 20 sec) 
Heartbeat CPU 3 instructions: 150000001 cycles: 523153035 heartbeat IPC: 0.305139 cumulative IPC: 0.286723 (Simulation time: 1 hr 15 min 21 sec) 
Heartbeat CPU 2 instructions: 140000000 cycles: 534527125 heartbeat IPC: 0.246854 cumulative IPC: 0.261914 (Simulation time: 1 hr 15 min 58 sec) 
Heartbeat CPU 0 instructions: 140000000 cycles: 539504792 heartbeat IPC: 0.266647 cumulative IPC: 0.259497 (Simulation time: 1 hr 16 min 12 sec) 
Heartbeat CPU 1 instructions: 150000002 cycles: 540762983 heartbeat IPC: 0.291147 cumulative IPC: 0.277386 (Simulation time: 1 hr 16 min 15 sec) 
Heartbeat CPU 3 instructions: 160000000 cycles: 557814918 heartbeat IPC: 0.288501 cumulative IPC: 0.286833 (Simulation time: 1 hr 16 min 56 sec) 
Heartbeat CPU 2 instructions: 150000000 cycles: 578733306 heartbeat IPC: 0.226213 cumulative IPC: 0.259187 (Simulation time: 1 hr 17 min 45 sec) 
Heartbeat CPU 1 instructions: 160000000 cycles: 579373577 heartbeat IPC: 0.258996 cumulative IPC: 0.27616 (Simulation time: 1 hr 17 min 47 sec) 
Heartbeat CPU 0 instructions: 150000000 cycles: 580805598 heartbeat IPC: 0.242126 cumulative IPC: 0.258262 (Simulation time: 1 hr 17 min 50 sec) 
Heartbeat CPU 3 instructions: 170000001 cycles: 598579060 heartbeat IPC: 0.245314 cumulative IPC: 0.284006 (Simulation time: 1 hr 18 min 28 sec) 
Heartbeat CPU 2 instructions: 160000000 cycles: 618008760 heartbeat IPC: 0.254612 cumulative IPC: 0.258896 (Simulation time: 1 hr 19 min 18 sec) 
Heartbeat CPU 1 instructions: 170000002 cycles: 619796850 heartbeat IPC: 0.247382 cumulative IPC: 0.274283 (Simulation time: 1 hr 19 min 23 sec) 
Heartbeat CPU 0 instructions: 160000000 cycles: 622565937 heartbeat IPC: 0.239462 cumulative IPC: 0.257001 (Simulation time: 1 hr 19 min 29 sec) 
Heartbeat CPU 3 instructions: 180000000 cycles: 635219607 heartbeat IPC: 0.272922 cumulative IPC: 0.283367 (Simulation time: 1 hr 20 min 0 sec) 
Heartbeat CPU 2 instructions: 170000003 cycles: 654987838 heartbeat IPC: 0.270423 cumulative IPC: 0.259547 (Simulation time: 1 hr 20 min 46 sec) 
Heartbeat CPU 1 instructions: 180000000 cycles: 658573543 heartbeat IPC: 0.257887 cumulative IPC: 0.273318 (Simulation time: 1 hr 20 min 54 sec) 
Heartbeat CPU 0 instructions: 170000003 cycles: 661034646 heartbeat IPC: 0.259952 cumulative IPC: 0.257173 (Simulation time: 1 hr 21 min 0 sec) 
Heartbeat CPU 3 instructions: 190000003 cycles: 672487227 heartbeat IPC: 0.26833 cumulative IPC: 0.282533 (Simulation time: 1 hr 21 min 29 sec) 
Heartbeat CPU 1 instructions: 190000000 cycles: 691813632 heartbeat IPC: 0.300842 cumulative IPC: 0.27464 (Simulation time: 1 hr 22 min 17 sec) 
Heartbeat CPU 2 instructions: 180000000 cycles: 695157979 heartbeat IPC: 0.248941 cumulative IPC: 0.258934 (Simulation time: 1 hr 22 min 27 sec) 
Heartbeat CPU 0 instructions: 180000000 cycles: 700214816 heartbeat IPC: 0.255231 cumulative IPC: 0.257064 (Simulation time: 1 hr 22 min 39 sec) 
*** Reached end of trace for Core: 3 Repeating trace: /data/behnam/ChampSim/tracer/behnam_trace/nutch_phase0_core3.trace.gz
Heartbeat CPU 3 instructions: 200000000 cycles: 712673972 heartbeat IPC: 0.248838 cumulative IPC: 0.280633 (Simulation time: 1 hr 23 min 11 sec) 
*** Reached end of trace for Core: 1 Repeating trace: /data/behnam/ChampSim/tracer/behnam_trace/nutch_phase0_core1.trace.gz
Heartbeat CPU 1 instructions: 200000000 cycles: 729516924 heartbeat IPC: 0.265229 cumulative IPC: 0.274154 (Simulation time: 1 hr 23 min 49 sec) 
Heartbeat CPU 2 instructions: 190000001 cycles: 732858220 heartbeat IPC: 0.26525 cumulative IPC: 0.259259 (Simulation time: 1 hr 23 min 59 sec) 
Heartbeat CPU 0 instructions: 190000000 cycles: 737346794 heartbeat IPC: 0.26931 cumulative IPC: 0.257681 (Simulation time: 1 hr 24 min 15 sec) 
Heartbeat CPU 3 instructions: 210000003 cycles: 744118267 heartbeat IPC: 0.318023 cumulative IPC: 0.282213 (Simulation time: 1 hr 24 min 36 sec) 
Heartbeat CPU 1 instructions: 210000003 cycles: 759200991 heartbeat IPC: 0.336881 cumulative IPC: 0.276607 (Simulation time: 1 hr 25 min 18 sec) 
*** Reached end of trace for Core: 2 Repeating trace: /data/behnam/ChampSim/tracer/behnam_trace/nutch_phase0_core2.trace.gz
Heartbeat CPU 2 instructions: 200000000 cycles: 769058432 heartbeat IPC: 0.276241 cumulative IPC: 0.260058 (Simulation time: 1 hr 25 min 47 sec) 
Heartbeat CPU 3 instructions: 220000000 cycles: 770186222 heartbeat IPC: 0.383613 cumulative IPC: 0.285645 (Simulation time: 1 hr 25 min 50 sec) 
*** Reached end of trace for Core: 0 Repeating trace: /data/behnam/ChampSim/tracer/behnam_trace/nutch_phase0_core0.trace.gz
Heartbeat CPU 0 instructions: 200000000 cycles: 774219217 heartbeat IPC: 0.271205 cumulative IPC: 0.258325 (Simulation time: 1 hr 25 min 59 sec) 
Heartbeat CPU 1 instructions: 220000000 cycles: 792982076 heartbeat IPC: 0.296024 cumulative IPC: 0.277434 (Simulation time: 1 hr 26 min 45 sec) 
Heartbeat CPU 2 instructions: 210000001 cycles: 807351544 heartbeat IPC: 0.261144 cumulative IPC: 0.26011 (Simulation time: 1 hr 27 min 20 sec) 
Heartbeat CPU 3 instructions: 230000002 cycles: 809639798 heartbeat IPC: 0.253462 cumulative IPC: 0.284077 (Simulation time: 1 hr 27 min 25 sec) 
Heartbeat CPU 0 instructions: 210000001 cycles: 812242819 heartbeat IPC: 0.262995 cumulative IPC: 0.258543 (Simulation time: 1 hr 27 min 31 sec) 
Heartbeat CPU 1 instructions: 230000002 cycles: 833297229 heartbeat IPC: 0.248046 cumulative IPC: 0.276012 (Simulation time: 1 hr 28 min 27 sec) 
Heartbeat CPU 2 instructions: 220000000 cycles: 842793512 heartbeat IPC: 0.282151 cumulative IPC: 0.261037 (Simulation time: 1 hr 28 min 47 sec) 
Heartbeat CPU 3 instructions: 240000000 cycles: 847420296 heartbeat IPC: 0.264687 cumulative IPC: 0.283212 (Simulation time: 1 hr 28 min 58 sec) 
Heartbeat CPU 0 instructions: 220000000 cycles: 848320284 heartbeat IPC: 0.277181 cumulative IPC: 0.259336 (Simulation time: 1 hr 29 min 2 sec) 
Heartbeat CPU 1 instructions: 240000000 cycles: 872322746 heartbeat IPC: 0.256243 cumulative IPC: 0.275128 (Simulation time: 1 hr 30 min 4 sec) 
Heartbeat CPU 2 instructions: 230000002 cycles: 879615945 heartbeat IPC: 0.271574 cumulative IPC: 0.261478 (Simulation time: 1 hr 30 min 20 sec) 
Heartbeat CPU 3 instructions: 250000002 cycles: 880171944 heartbeat IPC: 0.305328 cumulative IPC: 0.284035 (Simulation time: 1 hr 30 min 22 sec) 
Heartbeat CPU 0 instructions: 230000002 cycles: 890112743 heartbeat IPC: 0.239278 cumulative IPC: 0.258394 (Simulation time: 1 hr 30 min 46 sec) 
Heartbeat CPU 1 instructions: 250000000 cycles: 906663249 heartbeat IPC: 0.291201 cumulative IPC: 0.275736 (Simulation time: 1 hr 31 min 26 sec) 
Heartbeat CPU 3 instructions: 260000000 cycles: 914813707 heartbeat IPC: 0.288669 cumulative IPC: 0.284211 (Simulation time: 1 hr 31 min 47 sec) 
Heartbeat CPU 2 instructions: 240000000 cycles: 920103996 heartbeat IPC: 0.246986 cumulative IPC: 0.26084 (Simulation time: 1 hr 31 min 59 sec) 
Heartbeat CPU 0 instructions: 240000000 cycles: 927564620 heartbeat IPC: 0.267009 cumulative IPC: 0.258742 (Simulation time: 1 hr 32 min 19 sec) 
Heartbeat CPU 1 instructions: 260000000 cycles: 945275281 heartbeat IPC: 0.258987 cumulative IPC: 0.275052 (Simulation time: 1 hr 32 min 58 sec) 
Heartbeat CPU 3 instructions: 270000000 cycles: 955488426 heartbeat IPC: 0.245853 cumulative IPC: 0.282578 (Simulation time: 1 hr 33 min 21 sec) 
Heartbeat CPU 2 instructions: 250000000 cycles: 964357663 heartbeat IPC: 0.22597 cumulative IPC: 0.25924 (Simulation time: 1 hr 33 min 41 sec) 
Heartbeat CPU 0 instructions: 250000001 cycles: 968991145 heartbeat IPC: 0.241391 cumulative IPC: 0.258 (Simulation time: 1 hr 33 min 52 sec) 
Heartbeat CPU 1 instructions: 270000002 cycles: 985747390 heartbeat IPC: 0.247084 cumulative IPC: 0.273904 (Simulation time: 1 hr 34 min 32 sec) 
Heartbeat CPU 3 instructions: 280000000 cycles: 992218934 heartbeat IPC: 0.272253 cumulative IPC: 0.282196 (Simulation time: 1 hr 34 min 46 sec) 
Heartbeat CPU 2 instructions: 260000000 cycles: 1003627992 heartbeat IPC: 0.254645 cumulative IPC: 0.25906 (Simulation time: 1 hr 35 min 16 sec) 
Heartbeat CPU 0 instructions: 260000000 cycles: 1010879118 heartbeat IPC: 0.238732 cumulative IPC: 0.257202 (Simulation time: 1 hr 35 min 33 sec) 
Heartbeat CPU 1 instructions: 280000000 cycles: 1024480738 heartbeat IPC: 0.258175 cumulative IPC: 0.273309 (Simulation time: 1 hr 36 min 6 sec) 
Heartbeat CPU 3 instructions: 290000001 cycles: 1029343404 heartbeat IPC: 0.269364 cumulative IPC: 0.281733 (Simulation time: 1 hr 36 min 17 sec) 
Heartbeat CPU 2 instructions: 270000003 cycles: 1040675412 heartbeat IPC: 0.269924 cumulative IPC: 0.259447 (Simulation time: 1 hr 36 min 44 sec) 
Heartbeat CPU 0 instructions: 270000001 cycles: 1049372779 heartbeat IPC: 0.259783 cumulative IPC: 0.257297 (Simulation time: 1 hr 37 min 5 sec) 
Heartbeat CPU 1 instructions: 290000002 cycles: 1057774121 heartbeat IPC: 0.30036 cumulative IPC: 0.274161 (Simulation time: 1 hr 37 min 27 sec) 
*** Reached end of trace for Core: 3 Repeating trace: /data/behnam/ChampSim/tracer/behnam_trace/nutch_phase0_core3.trace.gz
Heartbeat CPU 3 instructions: 300000000 cycles: 1069670651 heartbeat IPC: 0.247971 cumulative IPC: 0.28046 (Simulation time: 1 hr 37 min 55 sec) 
Heartbeat CPU 2 instructions: 280000000 cycles: 1080826242 heartbeat IPC: 0.249061 cumulative IPC: 0.259061 (Simulation time: 1 hr 38 min 23 sec) 
Heartbeat CPU 0 instructions: 280000000 cycles: 1088486572 heartbeat IPC: 0.255664 cumulative IPC: 0.257238 (Simulation time: 1 hr 38 min 42 sec) 
*** Reached end of trace for Core: 1 Repeating trace: /data/behnam/ChampSim/tracer/behnam_trace/nutch_phase0_core1.trace.gz
Heartbeat CPU 1 instructions: 300000000 cycles: 1095371666 heartbeat IPC: 0.265975 cumulative IPC: 0.27388 (Simulation time: 1 hr 39 min 6 sec) 
Heartbeat CPU 3 instructions: 310000002 cycles: 1101081658 heartbeat IPC: 0.31836 cumulative IPC: 0.281541 (Simulation time: 1 hr 39 min 25 sec) 
Heartbeat CPU 2 instructions: 290000003 cycles: 1118350344 heartbeat IPC: 0.266495 cumulative IPC: 0.259311 (Simulation time: 1 hr 40 min 11 sec) 
Heartbeat CPU 1 instructions: 310000000 cycles: 1125022249 heartbeat IPC: 0.337261 cumulative IPC: 0.27555 (Simulation time: 1 hr 40 min 33 sec) 
Heartbeat CPU 0 instructions: 290000000 cycles: 1125492499 heartbeat IPC: 0.270227 cumulative IPC: 0.257665 (Simulation time: 1 hr 40 min 34 sec) 
Heartbeat CPU 3 instructions: 320000000 cycles: 1127223582 heartbeat IPC: 0.382527 cumulative IPC: 0.283883 (Simulation time: 1 hr 40 min 41 sec) 
*** Reached end of trace for Core: 2 Repeating trace: /data/behnam/ChampSim/tracer/behnam_trace/nutch_phase0_core2.trace.gz
Heartbeat CPU 2 instructions: 300000000 cycles: 1154666133 heartbeat IPC: 0.275362 cumulative IPC: 0.259815 (Simulation time: 1 hr 41 min 46 sec) 
Heartbeat CPU 1 instructions: 320000000 cycles: 1158810293 heartbeat IPC: 0.295963 cumulative IPC: 0.276145 (Simulation time: 1 hr 41 min 56 sec) 
*** Reached end of trace for Core: 0 Repeating trace: /data/behnam/ChampSim/tracer/behnam_trace/nutch_phase0_core0.trace.gz
Heartbeat CPU 0 instructions: 300000000 cycles: 1162374204 heartbeat IPC: 0.271137 cumulative IPC: 0.258092 (Simulation time: 1 hr 42 min 4 sec) 
Heartbeat CPU 3 instructions: 330000000 cycles: 1166575586 heartbeat IPC: 0.254117 cumulative IPC: 0.282879 (Simulation time: 1 hr 42 min 16 sec) 
Heartbeat CPU 2 instructions: 310000000 cycles: 1192963008 heartbeat IPC: 0.261118 cumulative IPC: 0.259857 (Simulation time: 1 hr 43 min 23 sec) 
Heartbeat CPU 1 instructions: 330000002 cycles: 1199066217 heartbeat IPC: 0.248411 cumulative IPC: 0.275214 (Simulation time: 1 hr 43 min 37 sec) 
Heartbeat CPU 0 instructions: 310000001 cycles: 1200382586 heartbeat IPC: 0.2631 cumulative IPC: 0.258251 (Simulation time: 1 hr 43 min 39 sec) 
Heartbeat CPU 3 instructions: 340000000 cycles: 1204235481 heartbeat IPC: 0.265534 cumulative IPC: 0.282337 (Simulation time: 1 hr 43 min 49 sec) 
Heartbeat CPU 2 instructions: 320000000 cycles: 1228399482 heartbeat IPC: 0.282195 cumulative IPC: 0.260502 (Simulation time: 1 hr 44 min 57 sec) 
Heartbeat CPU 0 instructions: 320000000 cycles: 1236419281 heartbeat IPC: 0.277495 cumulative IPC: 0.258812 (Simulation time: 1 hr 45 min 16 sec) 
Heartbeat CPU 3 instructions: 350000000 cycles: 1236973861 heartbeat IPC: 0.305452 cumulative IPC: 0.282949 (Simulation time: 1 hr 45 min 17 sec) 
Heartbeat CPU 1 instructions: 340000000 cycles: 1238089018 heartbeat IPC: 0.25626 cumulative IPC: 0.274617 (Simulation time: 1 hr 45 min 20 sec) 
Heartbeat CPU 2 instructions: 330000002 cycles: 1265295116 heartbeat IPC: 0.271035 cumulative IPC: 0.260809 (Simulation time: 1 hr 46 min 30 sec) 
Heartbeat CPU 3 instructions: 360000000 cycles: 1271686609 heartbeat IPC: 0.288079 cumulative IPC: 0.283089 (Simulation time: 1 hr 46 min 47 sec) 
Heartbeat CPU 1 instructions: 350000000 cycles: 1272424447 heartbeat IPC: 0.291244 cumulative IPC: 0.275065 (Simulation time: 1 hr 46 min 49 sec) 
Heartbeat CPU 0 instructions: 330000000 cycles: 1278255390 heartbeat IPC: 0.239028 cumulative IPC: 0.258164 (Simulation time: 1 hr 47 min 1 sec) 
Heartbeat CPU 2 instructions: 340000000 cycles: 1305828294 heartbeat IPC: 0.246711 cumulative IPC: 0.260371 (Simulation time: 1 hr 48 min 4 sec) 
Heartbeat CPU 1 instructions: 360000000 cycles: 1311100115 heartbeat IPC: 0.258561 cumulative IPC: 0.274579 (Simulation time: 1 hr 48 min 16 sec) 
Heartbeat CPU 3 instructions: 370000002 cycles: 1312476475 heartbeat IPC: 0.245159 cumulative IPC: 0.28191 (Simulation time: 1 hr 48 min 20 sec) 
Heartbeat CPU 0 instructions: 340000000 cycles: 1315746047 heartbeat IPC: 0.266733 cumulative IPC: 0.258409 (Simulation time: 1 hr 48 min 29 sec) 
Heartbeat CPU 3 instructions: 380000000 cycles: 1349195236 heartbeat IPC: 0.27234 cumulative IPC: 0.281649 (Simulation time: 1 hr 49 min 46 sec) 
Heartbeat CPU 2 instructions: 350000000 cycles: 1350075014 heartbeat IPC: 0.226005 cumulative IPC: 0.259245 (Simulation time: 1 hr 49 min 48 sec) 
Heartbeat CPU 1 instructions: 370000001 cycles: 1351556184 heartbeat IPC: 0.247182 cumulative IPC: 0.273759 (Simulation time: 1 hr 49 min 51 sec) 
Heartbeat CPU 0 instructions: 350000001 cycles: 1357112769 heartbeat IPC: 0.24174 cumulative IPC: 0.2579 (Simulation time: 1 hr 50 min 3 sec) 
Heartbeat CPU 3 instructions: 390000000 cycles: 1386439221 heartbeat IPC: 0.2685 cumulative IPC: 0.281296 (Simulation time: 1 hr 51 min 13 sec) 
Heartbeat CPU 2 instructions: 360000000 cycles: 1389386402 heartbeat IPC: 0.254379 cumulative IPC: 0.259107 (Simulation time: 1 hr 51 min 20 sec) 
Heartbeat CPU 1 instructions: 380000000 cycles: 1390377628 heartbeat IPC: 0.25759 cumulative IPC: 0.273307 (Simulation time: 1 hr 51 min 22 sec) 
Heartbeat CPU 0 instructions: 360000000 cycles: 1399025903 heartbeat IPC: 0.238589 cumulative IPC: 0.257322 (Simulation time: 1 hr 51 min 43 sec) 
Heartbeat CPU 1 instructions: 390000000 cycles: 1423623151 heartbeat IPC: 0.300792 cumulative IPC: 0.273949 (Simulation time: 1 hr 52 min 45 sec) 
Heartbeat CPU 2 instructions: 370000001 cycles: 1426442002 heartbeat IPC: 0.269865 cumulative IPC: 0.259387 (Simulation time: 1 hr 52 min 52 sec) 
*** Reached end of trace for Core: 3 Repeating trace: /data/behnam/ChampSim/tracer/behnam_trace/nutch_phase0_core3.trace.gz
Heartbeat CPU 3 instructions: 400000000 cycles: 1426673829 heartbeat IPC: 0.248542 cumulative IPC: 0.280372 (Simulation time: 1 hr 52 min 52 sec) 
Heartbeat CPU 0 instructions: 370000001 cycles: 1437510594 heartbeat IPC: 0.259844 cumulative IPC: 0.257389 (Simulation time: 1 hr 53 min 18 sec) 
Heartbeat CPU 3 instructions: 410000001 cycles: 1458150886 heartbeat IPC: 0.317692 cumulative IPC: 0.281178 (Simulation time: 1 hr 54 min 11 sec) 
*** Reached end of trace for Core: 1 Repeating trace: /data/behnam/ChampSim/tracer/behnam_trace/nutch_phase0_core1.trace.gz
Heartbeat CPU 1 instructions: 400000000 cycles: 1461221137 heartbeat IPC: 0.265972 cumulative IPC: 0.273744 (Simulation time: 1 hr 54 min 19 sec) 
Heartbeat CPU 2 instructions: 380000000 cycles: 1466514107 heartbeat IPC: 0.24955 cumulative IPC: 0.259118 (Simulation time: 1 hr 54 min 37 sec) 
Heartbeat CPU 0 instructions: 380000000 cycles: 1476558249 heartbeat IPC: 0.256097 cumulative IPC: 0.257355 (Simulation time: 1 hr 55 min 9 sec) 
Heartbeat CPU 3 instructions: 420000000 cycles: 1484346462 heartbeat IPC: 0.381744 cumulative IPC: 0.282953 (Simulation time: 1 hr 55 min 33 sec) 
Heartbeat CPU 1 instructions: 410000003 cycles: 1490878279 heartbeat IPC: 0.337187 cumulative IPC: 0.275006 (Simulation time: 1 hr 55 min 50 sec) 
Heartbeat CPU 2 instructions: 390000000 cycles: 1504055737 heartbeat IPC: 0.266371 cumulative IPC: 0.259299 (Simulation time: 1 hr 56 min 20 sec) 
Heartbeat CPU 0 instructions: 390000000 cycles: 1513540572 heartbeat IPC: 0.270399 cumulative IPC: 0.257674 (Simulation time: 1 hr 56 min 45 sec) 
Heartbeat CPU 3 instructions: 430000000 cycles: 1523731627 heartbeat IPC: 0.253903 cumulative IPC: 0.282202 (Simulation time: 1 hr 57 min 11 sec) 
Heartbeat CPU 1 instructions: 420000000 cycles: 1524743008 heartbeat IPC: 0.295292 cumulative IPC: 0.275456 (Simulation time: 1 hr 57 min 14 sec) 
*** Reached end of trace for Core: 2 Repeating trace: /data/behnam/ChampSim/tracer/behnam_trace/nutch_phase0_core2.trace.gz
Heartbeat CPU 2 instructions: 400000000 cycles: 1540415367 heartbeat IPC: 0.27503 cumulative IPC: 0.25967 (Simulation time: 1 hr 57 min 52 sec) 
*** Reached end of trace for Core: 0 Repeating trace: /data/behnam/ChampSim/tracer/behnam_trace/nutch_phase0_core0.trace.gz
Heartbeat CPU 0 instructions: 400000000 cycles: 1550452768 heartbeat IPC: 0.270913 cumulative IPC: 0.257989 (Simulation time: 1 hr 58 min 16 sec) 
Heartbeat CPU 3 instructions: 440000000 cycles: 1561425674 heartbeat IPC: 0.265294 cumulative IPC: 0.281794 (Simulation time: 1 hr 58 min 44 sec) 
Heartbeat CPU 1 instructions: 430000001 cycles: 1564911648 heartbeat IPC: 0.24895 cumulative IPC: 0.274776 (Simulation time: 1 hr 58 min 55 sec) 
Heartbeat CPU 2 instructions: 410000003 cycles: 1578620462 heartbeat IPC: 0.261745 cumulative IPC: 0.25972 (Simulation time: 1 hr 59 min 31 sec) 
Heartbeat CPU 0 instructions: 410000003 cycles: 1588455250 heartbeat IPC: 0.263141 cumulative IPC: 0.258112 (Simulation time: 1 hr 59 min 55 sec) 
Heartbeat CPU 3 instructions: 450000000 cycles: 1594140174 heartbeat IPC: 0.305675 cumulative IPC: 0.282284 (Simulation time: 2 hr 0 min 7 sec) 
Heartbeat CPU 1 instructions: 440000000 cycles: 1603887910 heartbeat IPC: 0.256566 cumulative IPC: 0.274333 (Simulation time: 2 hr 0 min 35 sec) 
Heartbeat CPU 2 instructions: 420000000 cycles: 1614000802 heartbeat IPC: 0.282643 cumulative IPC: 0.260223 (Simulation time: 2 hr 0 min 58 sec) 
Heartbeat CPU 0 instructions: 420000000 cycles: 1624528697 heartbeat IPC: 0.277212 cumulative IPC: 0.258537 (Simulation time: 2 hr 1 min 28 sec) 
Heartbeat CPU 3 instructions: 460000000 cycles: 1628792972 heartbeat IPC: 0.288577 cumulative IPC: 0.282418 (Simulation time: 2 hr 1 min 39 sec) 
Heartbeat CPU 1 instructions: 450000000 cycles: 1638179135 heartbeat IPC: 0.29162 cumulative IPC: 0.274695 (Simulation time: 2 hr 2 min 5 sec) 
Heartbeat CPU 2 instructions: 430000003 cycles: 1650800678 heartbeat IPC: 0.27174 cumulative IPC: 0.26048 (Simulation time: 2 hr 2 min 34 sec) 
Heartbeat CPU 0 instructions: 430000001 cycles: 1666316328 heartbeat IPC: 0.239305 cumulative IPC: 0.258054 (Simulation time: 2 hr 3 min 11 sec) 
Heartbeat CPU 3 instructions: 470000003 cycles: 1669563386 heartbeat IPC: 0.245276 cumulative IPC: 0.281511 (Simulation time: 2 hr 3 min 18 sec) 
Heartbeat CPU 1 instructions: 460000000 cycles: 1676855178 heartbeat IPC: 0.258558 cumulative IPC: 0.274323 (Simulation time: 2 hr 3 min 35 sec) 
Heartbeat CPU 2 instructions: 440000000 cycles: 1691360291 heartbeat IPC: 0.246551 cumulative IPC: 0.260146 (Simulation time: 2 hr 4 min 9 sec) 
Heartbeat CPU 0 instructions: 440000000 cycles: 1703862421 heartbeat IPC: 0.266339 cumulative IPC: 0.258237 (Simulation time: 2 hr 4 min 40 sec) 
Heartbeat CPU 3 instructions: 480000000 cycles: 1706291724 heartbeat IPC: 0.272269 cumulative IPC: 0.281312 (Simulation time: 2 hr 4 min 46 sec) 
Heartbeat CPU 1 instructions: 470000000 cycles: 1717284788 heartbeat IPC: 0.247343 cumulative IPC: 0.273688 (Simulation time: 2 hr 5 min 11 sec) 
Heartbeat CPU 2 instructions: 450000002 cycles: 1735635664 heartbeat IPC: 0.225859 cumulative IPC: 0.259271 (Simulation time: 2 hr 5 min 53 sec) 
Heartbeat CPU 3 instructions: 490000003 cycles: 1743498548 heartbeat IPC: 0.268768 cumulative IPC: 0.281044 (Simulation time: 2 hr 6 min 12 sec) 
Heartbeat CPU 0 instructions: 450000003 cycles: 1745267785 heartbeat IPC: 0.241515 cumulative IPC: 0.25784 (Simulation time: 2 hr 6 min 16 sec) 
Heartbeat CPU 1 instructions: 480000000 cycles: 1756217617 heartbeat IPC: 0.256853 cumulative IPC: 0.273315 (Simulation time: 2 hr 6 min 40 sec) 
Heartbeat CPU 2 instructions: 460000000 cycles: 1774921650 heartbeat IPC: 0.254544 cumulative IPC: 0.259166 (Simulation time: 2 hr 7 min 25 sec) 
*** Reached end of trace for Core: 3 Repeating trace: /data/behnam/ChampSim/tracer/behnam_trace/nutch_phase0_core3.trace.gz
Heartbeat CPU 3 instructions: 500000000 cycles: 1783780314 heartbeat IPC: 0.248251 cumulative IPC: 0.280304 (Simulation time: 2 hr 7 min 48 sec) 
Heartbeat CPU 0 instructions: 460000000 cycles: 1787113883 heartbeat IPC: 0.238971 cumulative IPC: 0.257398 (Simulation time: 2 hr 7 min 59 sec) 
Heartbeat CPU 1 instructions: 490000002 cycles: 1789475957 heartbeat IPC: 0.300677 cumulative IPC: 0.273823 (Simulation time: 2 hr 8 min 6 sec) 
Heartbeat CPU 2 instructions: 470000000 cycles: 1811901052 heartbeat IPC: 0.270421 cumulative IPC: 0.259396 (Simulation time: 2 hr 9 min 2 sec) 
Heartbeat CPU 3 instructions: 510000002 cycles: 1815247006 heartbeat IPC: 0.317796 cumulative IPC: 0.280953 (Simulation time: 2 hr 9 min 10 sec) 
Heartbeat CPU 0 instructions: 470000003 cycles: 1825444964 heartbeat IPC: 0.260885 cumulative IPC: 0.257471 (Simulation time: 2 hr 9 min 38 sec) 
*** Reached end of trace for Core: 1 Repeating trace: /data/behnam/ChampSim/tracer/behnam_trace/nutch_phase0_core1.trace.gz
Heartbeat CPU 1 instructions: 500000000 cycles: 1827057088 heartbeat IPC: 0.266091 cumulative IPC: 0.273664 (Simulation time: 2 hr 9 min 43 sec) 
Heartbeat CPU 3 instructions: 520000000 cycles: 1841423390 heartbeat IPC: 0.382024 cumulative IPC: 0.28239 (Simulation time: 2 hr 10 min 27 sec) 
Heartbeat CPU 2 instructions: 480000000 cycles: 1851934681 heartbeat IPC: 0.24979 cumulative IPC: 0.259188 (Simulation time: 2 hr 10 min 55 sec) 
Heartbeat CPU 1 instructions: 510000000 cycles: 1856736331 heartbeat IPC: 0.336936 cumulative IPC: 0.274676 (Simulation time: 2 hr 11 min 7 sec) 
Heartbeat CPU 0 instructions: 480000000 cycles: 1864475564 heartbeat IPC: 0.256209 cumulative IPC: 0.257445 (Simulation time: 2 hr 11 min 27 sec) 
Heartbeat CPU 3 instructions: 530000000 cycles: 1880798901 heartbeat IPC: 0.253965 cumulative IPC: 0.281795 (Simulation time: 2 hr 12 min 10 sec) 
Heartbeat CPU 2 instructions: 490000002 cycles: 1889568056 heartbeat IPC: 0.265722 cumulative IPC: 0.259319 (Simulation time: 2 hr 12 min 31 sec) 
Heartbeat CPU 1 instructions: 520000000 cycles: 1890583360 heartbeat IPC: 0.295447 cumulative IPC: 0.275047 (Simulation time: 2 hr 12 min 33 sec) 
Heartbeat CPU 0 instructions: 490000003 cycles: 1901574949 heartbeat IPC: 0.269546 cumulative IPC: 0.257681 (Simulation time: 2 hr 13 min 0 sec) 
Heartbeat CPU 3 instructions: 540000000 cycles: 1918531044 heartbeat IPC: 0.265026 cumulative IPC: 0.281465 (Simulation time: 2 hr 13 min 39 sec) 
*** Reached end of trace for Core: 2 Repeating trace: /data/behnam/ChampSim/tracer/behnam_trace/nutch_phase0_core2.trace.gz
Heartbeat CPU 2 instructions: 500000000 cycles: 1925944532 heartbeat IPC: 0.274903 cumulative IPC: 0.259613 (Simulation time: 2 hr 14 min 2 sec) 
Heartbeat CPU 1 instructions: 530000000 cycles: 1930840873 heartbeat IPC: 0.248401 cumulative IPC: 0.274492 (Simulation time: 2 hr 14 min 14 sec) 
*** Reached end of trace for Core: 0 Repeating trace: /data/behnam/ChampSim/tracer/behnam_trace/nutch_phase0_core0.trace.gz
Heartbeat CPU 0 instructions: 500000000 cycles: 1938511475 heartbeat IPC: 0.270735 cumulative IPC: 0.25793 (Simulation time: 2 hr 14 min 33 sec) 
Heartbeat CPU 3 instructions: 550000002 cycles: 1951264700 heartbeat IPC: 0.305496 cumulative IPC: 0.281868 (Simulation time: 2 hr 15 min 6 sec) 
Heartbeat CPU 2 instructions: 510000002 cycles: 1964171842 heartbeat IPC: 0.261593 cumulative IPC: 0.259651 (Simulation time: 2 hr 15 min 36 sec) 
Heartbeat CPU 1 instructions: 540000000 cycles: 1969784851 heartbeat IPC: 0.256779 cumulative IPC: 0.274142 (Simulation time: 2 hr 15 min 49 sec) 
Heartbeat CPU 0 instructions: 510000000 cycles: 1976444381 heartbeat IPC: 0.263623 cumulative IPC: 0.258039 (Simulation time: 2 hr 16 min 5 sec) 
Heartbeat CPU 3 instructions: 560000000 cycles: 1985920064 heartbeat IPC: 0.288556 cumulative IPC: 0.281985 (Simulation time: 2 hr 16 min 34 sec) 
Heartbeat CPU 2 instructions: 520000000 cycles: 1999544686 heartbeat IPC: 0.282703 cumulative IPC: 0.260059 (Simulation time: 2 hr 17 min 11 sec) 
Heartbeat CPU 1 instructions: 550000000 cycles: 2004036276 heartbeat IPC: 0.291959 cumulative IPC: 0.274446 (Simulation time: 2 hr 17 min 21 sec) 
Heartbeat CPU 0 instructions: 520000000 cycles: 2012504112 heartbeat IPC: 0.277318 cumulative IPC: 0.258385 (Simulation time: 2 hr 17 min 41 sec) 
Heartbeat CPU 3 instructions: 570000000 cycles: 2026670683 heartbeat IPC: 0.245395 cumulative IPC: 0.281249 (Simulation time: 2 hr 18 min 15 sec) 
Heartbeat CPU 2 instructions: 530000003 cycles: 2036423889 heartbeat IPC: 0.271156 cumulative IPC: 0.26026 (Simulation time: 2 hr 18 min 40 sec) 
Heartbeat CPU 1 instructions: 560000000 cycles: 2042685466 heartbeat IPC: 0.258738 cumulative IPC: 0.274149 (Simulation time: 2 hr 18 min 55 sec) 
Heartbeat CPU 0 instructions: 530000000 cycles: 2054379813 heartbeat IPC: 0.238802 cumulative IPC: 0.257985 (Simulation time: 2 hr 19 min 23 sec) 
Heartbeat CPU 3 instructions: 580000000 cycles: 2063404257 heartbeat IPC: 0.272231 cumulative IPC: 0.281089 (Simulation time: 2 hr 19 min 43 sec) 
Heartbeat CPU 2 instructions: 540000000 cycles: 2076966253 heartbeat IPC: 0.246655 cumulative IPC: 0.259995 (Simulation time: 2 hr 20 min 16 sec) 
Heartbeat CPU 1 instructions: 570000000 cycles: 2083107075 heartbeat IPC: 0.247392 cumulative IPC: 0.27363 (Simulation time: 2 hr 20 min 29 sec) 
Heartbeat CPU 0 instructions: 540000000 cycles: 2091828521 heartbeat IPC: 0.267032 cumulative IPC: 0.258147 (Simulation time: 2 hr 20 min 52 sec) 
Heartbeat CPU 3 instructions: 590000003 cycles: 2100613252 heartbeat IPC: 0.268752 cumulative IPC: 0.28087 (Simulation time: 2 hr 21 min 13 sec) 
Heartbeat CPU 2 instructions: 550000002 cycles: 2121214191 heartbeat IPC: 0.225999 cumulative IPC: 0.259285 (Simulation time: 2 hr 22 min 0 sec) 
Heartbeat CPU 1 instructions: 580000000 cycles: 2121999116 heartbeat IPC: 0.257122 cumulative IPC: 0.273327 (Simulation time: 2 hr 22 min 1 sec) 
Heartbeat CPU 0 instructions: 550000001 cycles: 2133375177 heartbeat IPC: 0.240693 cumulative IPC: 0.257807 (Simulation time: 2 hr 22 min 27 sec) 
*** Reached end of trace for Core: 3 Repeating trace: /data/behnam/ChampSim/tracer/behnam_trace/nutch_phase0_core3.trace.gz
Heartbeat CPU 3 instructions: 600000000 cycles: 2140952177 heartbeat IPC: 0.247899 cumulative IPC: 0.280249 (Simulation time: 2 hr 22 min 46 sec) 
Heartbeat CPU 1 instructions: 590000003 cycles: 2155303986 heartbeat IPC: 0.300256 cumulative IPC: 0.273743 (Simulation time: 2 hr 23 min 23 sec) 
Heartbeat CPU 2 instructions: 560000000 cycles: 2160467426 heartbeat IPC: 0.254756 cumulative IPC: 0.259203 (Simulation time: 2 hr 23 min 36 sec) 
Heartbeat CPU 3 instructions: 610000001 cycles: 2172407545 heartbeat IPC: 0.317911 cumulative IPC: 0.280794 (Simulation time: 2 hr 24 min 12 sec) 
Heartbeat CPU 0 instructions: 560000000 cycles: 2175218916 heartbeat IPC: 0.238984 cumulative IPC: 0.257445 (Simulation time: 2 hr 24 min 19 sec) 
*** Reached end of trace for Core: 1 Repeating trace: /data/behnam/ChampSim/tracer/behnam_trace/nutch_phase0_core1.trace.gz
Heartbeat CPU 1 instructions: 600000000 cycles: 2192751782 heartbeat IPC: 0.267038 cumulative IPC: 0.273629 (Simulation time: 2 hr 25 min 6 sec) 
Heartbeat CPU 2 instructions: 570000000 cycles: 2197329981 heartbeat IPC: 0.271278 cumulative IPC: 0.259406 (Simulation time: 2 hr 25 min 20 sec) 
Heartbeat CPU 3 instructions: 620000000 cycles: 2198568657 heartbeat IPC: 0.382247 cumulative IPC: 0.282002 (Simulation time: 2 hr 25 min 24 sec) 
Heartbeat CPU 0 instructions: 570000000 cycles: 2213545126 heartbeat IPC: 0.260918 cumulative IPC: 0.257505 (Simulation time: 2 hr 26 min 1 sec) 
Heartbeat CPU 1 instructions: 610000002 cycles: 2222462380 heartbeat IPC: 0.33658 cumulative IPC: 0.27447 (Simulation time: 2 hr 26 min 24 sec) 
Heartbeat CPU 2 instructions: 580000000 cycles: 2237416371 heartbeat IPC: 0.249461 cumulative IPC: 0.259228 (Simulation time: 2 hr 27 min 3 sec) 
Heartbeat CPU 3 instructions: 630000002 cycles: 2237986940 heartbeat IPC: 0.253689 cumulative IPC: 0.281503 (Simulation time: 2 hr 27 min 5 sec) 
Heartbeat CPU 0 instructions: 580000000 cycles: 2252597590 heartbeat IPC: 0.256066 cumulative IPC: 0.257481 (Simulation time: 2 hr 27 min 45 sec) 
Heartbeat CPU 1 instructions: 620000000 cycles: 2256336809 heartbeat IPC: 0.295208 cumulative IPC: 0.274782 (Simulation time: 2 hr 27 min 54 sec) 
Heartbeat CPU 2 instructions: 590000003 cycles: 2275087194 heartbeat IPC: 0.265458 cumulative IPC: 0.259331 (Simulation time: 2 hr 28 min 37 sec) 
Heartbeat CPU 3 instructions: 640000000 cycles: 2275656103 heartbeat IPC: 0.265469 cumulative IPC: 0.281238 (Simulation time: 2 hr 28 min 39 sec) 
Heartbeat CPU 0 instructions: 590000002 cycles: 2289734154 heartbeat IPC: 0.269276 cumulative IPC: 0.257672 (Simulation time: 2 hr 29 min 18 sec) 
Heartbeat CPU 1 instructions: 630000000 cycles: 2296617023 heartbeat IPC: 0.248261 cumulative IPC: 0.274317 (Simulation time: 2 hr 29 min 35 sec) 
Heartbeat CPU 3 instructions: 650000002 cycles: 2308395883 heartbeat IPC: 0.305439 cumulative IPC: 0.281581 (Simulation time: 2 hr 30 min 2 sec) 
*** Reached end of trace for Core: 2 Repeating trace: /data/behnam/ChampSim/tracer/behnam_trace/nutch_phase0_core2.trace.gz
Heartbeat CPU 2 instructions: 600000000 cycles: 2311433177 heartbeat IPC: 0.275133 cumulative IPC: 0.259579 (Simulation time: 2 hr 30 min 9 sec) 
*** Reached end of trace for Core: 0 Repeating trace: /data/behnam/ChampSim/tracer/behnam_trace/nutch_phase0_core0.trace.gz
Heartbeat CPU 0 instructions: 600000000 cycles: 2326638585 heartbeat IPC: 0.27097 cumulative IPC: 0.257883 (Simulation time: 2 hr 30 min 47 sec) 
Heartbeat CPU 1 instructions: 640000000 cycles: 2335520050 heartbeat IPC: 0.257049 cumulative IPC: 0.274029 (Simulation time: 2 hr 31 min 11 sec) 
Heartbeat CPU 3 instructions: 660000000 cycles: 2343024412 heartbeat IPC: 0.288779 cumulative IPC: 0.281687 (Simulation time: 2 hr 31 min 31 sec) 
Heartbeat CPU 2 instructions: 610000003 cycles: 2349689496 heartbeat IPC: 0.261395 cumulative IPC: 0.259609 (Simulation time: 2 hr 31 min 50 sec) 
Heartbeat CPU 0 instructions: 610000002 cycles: 2364579024 heartbeat IPC: 0.263571 cumulative IPC: 0.257974 (Simulation time: 2 hr 32 min 27 sec) 
Heartbeat CPU 1 instructions: 650000002 cycles: 2369700841 heartbeat IPC: 0.292562 cumulative IPC: 0.274296 (Simulation time: 2 hr 32 min 39 sec) 
Heartbeat CPU 3 instructions: 670000001 cycles: 2383685929 heartbeat IPC: 0.245933 cumulative IPC: 0.281077 (Simulation time: 2 hr 33 min 14 sec) 
Heartbeat CPU 2 instructions: 620000000 cycles: 2385091402 heartbeat IPC: 0.282471 cumulative IPC: 0.259948 (Simulation time: 2 hr 33 min 18 sec) 
Heartbeat CPU 0 instructions: 620000000 cycles: 2400693380 heartbeat IPC: 0.276898 cumulative IPC: 0.258259 (Simulation time: 2 hr 33 min 57 sec) 
Heartbeat CPU 1 instructions: 660000000 cycles: 2408331851 heartbeat IPC: 0.258859 cumulative IPC: 0.274049 (Simulation time: 2 hr 34 min 19 sec) 
Heartbeat CPU 3 instructions: 680000000 cycles: 2420413061 heartbeat IPC: 0.272278 cumulative IPC: 0.280944 (Simulation time: 2 hr 34 min 45 sec) 
Heartbeat CPU 2 instructions: 630000000 cycles: 2421973414 heartbeat IPC: 0.271135 cumulative IPC: 0.260118 (Simulation time: 2 hr 34 min 49 sec) 
Heartbeat CPU 0 instructions: 630000001 cycles: 2442503371 heartbeat IPC: 0.239177 cumulative IPC: 0.257932 (Simulation time: 2 hr 35 min 37 sec) 
Heartbeat CPU 1 instructions: 670000001 cycles: 2448817860 heartbeat IPC: 0.246999 cumulative IPC: 0.273601 (Simulation time: 2 hr 35 min 51 sec) 
Heartbeat CPU 3 instructions: 690000001 cycles: 2457686634 heartbeat IPC: 0.268287 cumulative IPC: 0.280752 (Simulation time: 2 hr 36 min 12 sec) 
Heartbeat CPU 2 instructions: 640000000 cycles: 2462539597 heartbeat IPC: 0.246511 cumulative IPC: 0.259894 (Simulation time: 2 hr 36 min 23 sec) 
Heartbeat CPU 0 instructions: 640000000 cycles: 2479989758 heartbeat IPC: 0.266763 cumulative IPC: 0.258066 (Simulation time: 2 hr 37 min 6 sec) 
Heartbeat CPU 1 instructions: 680000000 cycles: 2487694774 heartbeat IPC: 0.257222 cumulative IPC: 0.273345 (Simulation time: 2 hr 37 min 22 sec) 
*** Reached end of trace for Core: 3 Repeating trace: /data/behnam/ChampSim/tracer/behnam_trace/nutch_phase0_core3.trace.gz
Heartbeat CPU 3 instructions: 700000000 cycles: 2498027573 heartbeat IPC: 0.247887 cumulative IPC: 0.280221 (Simulation time: 2 hr 37 min 46 sec) 
Heartbeat CPU 2 instructions: 650000000 cycles: 2506833325 heartbeat IPC: 0.225766 cumulative IPC: 0.259291 (Simulation time: 2 hr 38 min 7 sec) 
Heartbeat CPU 1 instructions: 690000002 cycles: 2520994367 heartbeat IPC: 0.300304 cumulative IPC: 0.273702 (Simulation time: 2 hr 38 min 44 sec) 
Heartbeat CPU 0 instructions: 650000002 cycles: 2521403062 heartbeat IPC: 0.241468 cumulative IPC: 0.257793 (Simulation time: 2 hr 38 min 46 sec) 
Heartbeat CPU 3 instructions: 710000002 cycles: 2529547203 heartbeat IPC: 0.317263 cumulative IPC: 0.280683 (Simulation time: 2 hr 39 min 9 sec) 
Heartbeat CPU 2 instructions: 660000000 cycles: 2546069074 heartbeat IPC: 0.25487 cumulative IPC: 0.259223 (Simulation time: 2 hr 39 min 53 sec) 
Heartbeat CPU 3 instructions: 720000000 cycles: 2555703649 heartbeat IPC: 0.382315 cumulative IPC: 0.281723 (Simulation time: 2 hr 40 min 19 sec) 
*** Reached end of trace for Core: 1 Repeating trace: /data/behnam/ChampSim/tracer/behnam_trace/nutch_phase0_core1.trace.gz
Heartbeat CPU 1 instructions: 700000000 cycles: 2558482320 heartbeat IPC: 0.266752 cumulative IPC: 0.2736 (Simulation time: 2 hr 40 min 29 sec) 
Heartbeat CPU 0 instructions: 660000000 cycles: 2563146622 heartbeat IPC: 0.239558 cumulative IPC: 0.257496 (Simulation time: 2 hr 40 min 42 sec) 
Heartbeat CPU 2 instructions: 670000002 cycles: 2582983299 heartbeat IPC: 0.270898 cumulative IPC: 0.25939 (Simulation time: 2 hr 41 min 32 sec) 
Heartbeat CPU 1 instructions: 710000003 cycles: 2588193692 heartbeat IPC: 0.336572 cumulative IPC: 0.274323 (Simulation time: 2 hr 41 min 45 sec) 
Heartbeat CPU 3 instructions: 730000003 cycles: 2595082246 heartbeat IPC: 0.253945 cumulative IPC: 0.281301 (Simulation time: 2 hr 42 min 4 sec) 
Heartbeat CPU 0 instructions: 670000000 cycles: 2601535307 heartbeat IPC: 0.260493 cumulative IPC: 0.25754 (Simulation time: 2 hr 42 min 20 sec) 
Heartbeat CPU 1 instructions: 720000000 cycles: 2622045274 heartbeat IPC: 0.295407 cumulative IPC: 0.274595 (Simulation time: 2 hr 43 min 12 sec) 
Heartbeat CPU 2 instructions: 680000000 cycles: 2623060743 heartbeat IPC: 0.249517 cumulative IPC: 0.259239 (Simulation time: 2 hr 43 min 15 sec) 
Heartbeat CPU 3 instructions: 740000000 cycles: 2632800182 heartbeat IPC: 0.265126 cumulative IPC: 0.28107 (Simulation time: 2 hr 43 min 39 sec) 
Heartbeat CPU 0 instructions: 680000000 cycles: 2640645981 heartbeat IPC: 0.255685 cumulative IPC: 0.257513 (Simulation time: 2 hr 44 min 1 sec) 
Heartbeat CPU 2 instructions: 690000002 cycles: 2660752618 heartbeat IPC: 0.265309 cumulative IPC: 0.259325 (Simulation time: 2 hr 44 min 51 sec) 
Heartbeat CPU 1 instructions: 730000000 cycles: 2662243925 heartbeat IPC: 0.248765 cumulative IPC: 0.274205 (Simulation time: 2 hr 44 min 54 sec) 
Heartbeat CPU 3 instructions: 750000003 cycles: 2665542615 heartbeat IPC: 0.305414 cumulative IPC: 0.281369 (Simulation time: 2 hr 45 min 2 sec) 
Heartbeat CPU 0 instructions: 690000000 cycles: 2677701274 heartbeat IPC: 0.269867 cumulative IPC: 0.257684 (Simulation time: 2 hr 45 min 30 sec) 
*** Reached end of trace for Core: 2 Repeating trace: /data/behnam/ChampSim/tracer/behnam_trace/nutch_phase0_core2.trace.gz
Heartbeat CPU 2 instructions: 700000000 cycles: 2697147968 heartbeat IPC: 0.27476 cumulative IPC: 0.259533 (Simulation time: 2 hr 46 min 21 sec) 
Heartbeat CPU 3 instructions: 760000000 cycles: 2700146839 heartbeat IPC: 0.288982 cumulative IPC: 0.281466 (Simulation time: 2 hr 46 min 28 sec) 
Heartbeat CPU 1 instructions: 740000000 cycles: 2701197041 heartbeat IPC: 0.256719 cumulative IPC: 0.273953 (Simulation time: 2 hr 46 min 31 sec) 
*** Reached end of trace for Core: 0 Repeating trace: /data/behnam/ChampSim/tracer/behnam_trace/nutch_phase0_core0.trace.gz
Heartbeat CPU 0 instructions: 700000000 cycles: 2714634893 heartbeat IPC: 0.270756 cumulative IPC: 0.257862 (Simulation time: 2 hr 47 min 6 sec) 
Heartbeat CPU 1 instructions: 750000002 cycles: 2735367048 heartbeat IPC: 0.292654 cumulative IPC: 0.274186 (Simulation time: 2 hr 47 min 58 sec) 
Heartbeat CPU 2 instructions: 710000001 cycles: 2735384057 heartbeat IPC: 0.261533 cumulative IPC: 0.259561 (Simulation time: 2 hr 47 min 58 sec) 
Heartbeat CPU 3 instructions: 770000003 cycles: 2740747330 heartbeat IPC: 0.246303 cumulative IPC: 0.280945 (Simulation time: 2 hr 48 min 10 sec) 
Heartbeat CPU 0 instructions: 710000001 cycles: 2752672164 heartbeat IPC: 0.2629 cumulative IPC: 0.257931 (Simulation time: 2 hr 48 min 39 sec) 
Heartbeat CPU 2 instructions: 720000000 cycles: 2770854786 heartbeat IPC: 0.281923 cumulative IPC: 0.259848 (Simulation time: 2 hr 49 min 27 sec) 
Heartbeat CPU 1 instructions: 760000000 cycles: 2774025055 heartbeat IPC: 0.258679 cumulative IPC: 0.27397 (Simulation time: 2 hr 49 min 34 sec) 
Heartbeat CPU 3 instructions: 780000000 cycles: 2777495807 heartbeat IPC: 0.27212 cumulative IPC: 0.280829 (Simulation time: 2 hr 49 min 41 sec) 
Heartbeat CPU 0 instructions: 720000000 cycles: 2788749625 heartbeat IPC: 0.277181 cumulative IPC: 0.25818 (Simulation time: 2 hr 50 min 8 sec) 
Heartbeat CPU 2 instructions: 730000001 cycles: 2807759447 heartbeat IPC: 0.270968 cumulative IPC: 0.259994 (Simulation time: 2 hr 50 min 55 sec) 
Heartbeat CPU 1 instructions: 770000000 cycles: 2814514042 heartbeat IPC: 0.246981 cumulative IPC: 0.273582 (Simulation time: 2 hr 51 min 12 sec) 
Heartbeat CPU 3 instructions: 790000001 cycles: 2814713405 heartbeat IPC: 0.26869 cumulative IPC: 0.280668 (Simulation time: 2 hr 51 min 13 sec) 
Heartbeat CPU 0 instructions: 730000002 cycles: 2830617046 heartbeat IPC: 0.238849 cumulative IPC: 0.257894 (Simulation time: 2 hr 51 min 48 sec) 
Heartbeat CPU 2 instructions: 740000000 cycles: 2848301987 heartbeat IPC: 0.246654 cumulative IPC: 0.259804 (Simulation time: 2 hr 52 min 29 sec) 
Heartbeat CPU 1 instructions: 780000000 cycles: 2853379834 heartbeat IPC: 0.257296 cumulative IPC: 0.27336 (Simulation time: 2 hr 52 min 41 sec) 
*** Reached end of trace for Core: 3 Repeating trace: /data/behnam/ChampSim/tracer/behnam_trace/nutch_phase0_core3.trace.gz
Heartbeat CPU 3 instructions: 800000000 cycles: 2855047365 heartbeat IPC: 0.24793 cumulative IPC: 0.280206 (Simulation time: 2 hr 52 min 44 sec) 
Heartbeat CPU 0 instructions: 740000000 cycles: 2868218686 heartbeat IPC: 0.265946 cumulative IPC: 0.258 (Simulation time: 2 hr 53 min 16 sec) 
Heartbeat CPU 3 instructions: 810000003 cycles: 2886556403 heartbeat IPC: 0.317369 cumulative IPC: 0.280611 (Simulation time: 2 hr 54 min 8 sec) 
Heartbeat CPU 1 instructions: 790000000 cycles: 2886631132 heartbeat IPC: 0.30074 cumulative IPC: 0.273675 (Simulation time: 2 hr 54 min 8 sec) 
Heartbeat CPU 2 instructions: 750000003 cycles: 2892541140 heartbeat IPC: 0.226044 cumulative IPC: 0.259288 (Simulation time: 2 hr 54 min 22 sec) 
Heartbeat CPU 0 instructions: 750000001 cycles: 2909506391 heartbeat IPC: 0.242203 cumulative IPC: 0.257776 (Simulation time: 2 hr 55 min 9 sec) 
Heartbeat CPU 3 instructions: 820000000 cycles: 2912738487 heartbeat IPC: 0.38194 cumulative IPC: 0.281522 (Simulation time: 2 hr 55 min 16 sec) 
*** Reached end of trace for Core: 1 Repeating trace: /data/behnam/ChampSim/tracer/behnam_trace/nutch_phase0_core1.trace.gz
Heartbeat CPU 1 instructions: 800000000 cycles: 2924253187 heartbeat IPC: 0.265802 cumulative IPC: 0.273574 (Simulation time: 2 hr 55 min 45 sec) 
Heartbeat CPU 2 instructions: 760000000 cycles: 2931709494 heartbeat IPC: 0.255308 cumulative IPC: 0.259234 (Simulation time: 2 hr 56 min 5 sec) 
Heartbeat CPU 0 instructions: 760000000 cycles: 2951276552 heartbeat IPC: 0.239405 cumulative IPC: 0.257516 (Simulation time: 2 hr 56 min 57 sec) 
Heartbeat CPU 3 instructions: 830000001 cycles: 2952144328 heartbeat IPC: 0.25377 cumulative IPC: 0.281152 (Simulation time: 2 hr 56 min 59 sec) 
Heartbeat CPU 1 instructions: 810000000 cycles: 2953946882 heartbeat IPC: 0.336772 cumulative IPC: 0.274209 (Simulation time: 2 hr 57 min 4 sec) 
Heartbeat CPU 2 instructions: 770000001 cycles: 2968610242 heartbeat IPC: 0.270997 cumulative IPC: 0.259381 (Simulation time: 2 hr 57 min 39 sec) 
Heartbeat CPU 1 instructions: 820000000 cycles: 2987857054 heartbeat IPC: 0.294897 cumulative IPC: 0.274444 (Simulation time: 2 hr 58 min 26 sec) 
Heartbeat CPU 0 instructions: 770000002 cycles: 2989676706 heartbeat IPC: 0.260416 cumulative IPC: 0.257553 (Simulation time: 2 hr 58 min 30 sec) 
Heartbeat CPU 3 instructions: 840000000 cycles: 2989852910 heartbeat IPC: 0.265192 cumulative IPC: 0.28095 (Simulation time: 2 hr 58 min 31 sec) 
Heartbeat CPU 2 instructions: 780000000 cycles: 3008728733 heartbeat IPC: 0.249262 cumulative IPC: 0.259246 (Simulation time: 2 hr 59 min 20 sec) 
Heartbeat CPU 3 instructions: 850000003 cycles: 3022639082 heartbeat IPC: 0.305007 cumulative IPC: 0.281211 (Simulation time: 2 hr 59 min 55 sec) 
Heartbeat CPU 1 instructions: 830000002 cycles: 3028047811 heartbeat IPC: 0.248813 cumulative IPC: 0.274104 (Simulation time: 3 hr 0 min 7 sec) 
Heartbeat CPU 0 instructions: 780000000 cycles: 3028738442 heartbeat IPC: 0.256005 cumulative IPC: 0.257533 (Simulation time: 3 hr 0 min 9 sec) 
Heartbeat CPU 2 instructions: 790000001 cycles: 3046392776 heartbeat IPC: 0.265505 cumulative IPC: 0.259323 (Simulation time: 3 hr 0 min 52 sec) 
Heartbeat CPU 3 instructions: 860000000 cycles: 3057234475 heartbeat IPC: 0.289056 cumulative IPC: 0.2813 (Simulation time: 3 hr 1 min 23 sec) 
Heartbeat CPU 0 instructions: 790000003 cycles: 3065796542 heartbeat IPC: 0.269847 cumulative IPC: 0.257682 (Simulation time: 3 hr 1 min 42 sec) 
Heartbeat CPU 1 instructions: 840000000 cycles: 3067061936 heartbeat IPC: 0.256317 cumulative IPC: 0.273878 (Simulation time: 3 hr 1 min 45 sec) 
*** Reached end of trace for Core: 2 Repeating trace: /data/behnam/ChampSim/tracer/behnam_trace/nutch_phase0_core2.trace.gz
Heartbeat CPU 2 instructions: 800000000 cycles: 3082783803 heartbeat IPC: 0.274793 cumulative IPC: 0.259506 (Simulation time: 3 hr 2 min 24 sec) 
Heartbeat CPU 3 instructions: 870000003 cycles: 3097881300 heartbeat IPC: 0.246022 cumulative IPC: 0.280837 (Simulation time: 3 hr 3 min 1 sec) 
Heartbeat CPU 1 instructions: 850000001 cycles: 3101286976 heartbeat IPC: 0.292184 cumulative IPC: 0.27408 (Simulation time: 3 hr 3 min 10 sec) 
*** Reached end of trace for Core: 0 Repeating trace: /data/behnam/ChampSim/tracer/behnam_trace/nutch_phase0_core0.trace.gz
Heartbeat CPU 0 instructions: 800000000 cycles: 3102781380 heartbeat IPC: 0.270381 cumulative IPC: 0.257833 (Simulation time: 3 hr 3 min 13 sec) 
Heartbeat CPU 2 instructions: 810000000 cycles: 3121033584 heartbeat IPC: 0.261439 cumulative IPC: 0.259529 (Simulation time: 3 hr 3 min 59 sec) 
Heartbeat CPU 3 instructions: 880000000 cycles: 3134561080 heartbeat IPC: 0.27263 cumulative IPC: 0.280741 (Simulation time: 3 hr 4 min 33 sec) 
Heartbeat CPU 1 instructions: 860000000 cycles: 3139860152 heartbeat IPC: 0.259247 cumulative IPC: 0.273898 (Simulation time: 3 hr 4 min 46 sec) 
Heartbeat CPU 0 instructions: 810000000 cycles: 3140811474 heartbeat IPC: 0.26295 cumulative IPC: 0.257895 (Simulation time: 3 hr 4 min 48 sec) 
Heartbeat CPU 2 instructions: 820000000 cycles: 3156482051 heartbeat IPC: 0.2821 cumulative IPC: 0.259783 (Simulation time: 3 hr 5 min 28 sec) 
Heartbeat CPU 3 instructions: 890000001 cycles: 3171839273 heartbeat IPC: 0.268253 cumulative IPC: 0.280594 (Simulation time: 3 hr 6 min 4 sec) 
Heartbeat CPU 0 instructions: 820000000 cycles: 3176941701 heartbeat IPC: 0.276777 cumulative IPC: 0.25811 (Simulation time: 3 hr 6 min 18 sec) 
Heartbeat CPU 1 instructions: 870000000 cycles: 3180350897 heartbeat IPC: 0.24697 cumulative IPC: 0.273555 (Simulation time: 3 hr 6 min 28 sec) 
Heartbeat CPU 2 instructions: 830000002 cycles: 3193293114 heartbeat IPC: 0.271658 cumulative IPC: 0.25992 (Simulation time: 3 hr 6 min 57 sec) 
*** Reached end of trace for Core: 3 Repeating trace: /data/behnam/ChampSim/tracer/behnam_trace/nutch_phase0_core3.trace.gz
Heartbeat CPU 3 instructions: 900000000 cycles: 3212119546 heartbeat IPC: 0.24826 cumulative IPC: 0.280189 (Simulation time: 3 hr 7 min 42 sec) 
Heartbeat CPU 0 instructions: 830000001 cycles: 3218802314 heartbeat IPC: 0.238888 cumulative IPC: 0.25786 (Simulation time: 3 hr 7 min 57 sec) 
Heartbeat CPU 1 instructions: 880000000 cycles: 3219223875 heartbeat IPC: 0.257248 cumulative IPC: 0.273358 (Simulation time: 3 hr 7 min 57 sec) 
Heartbeat CPU 2 instructions: 840000000 cycles: 3233895154 heartbeat IPC: 0.246293 cumulative IPC: 0.259749 (Simulation time: 3 hr 8 min 33 sec) 
Heartbeat CPU 3 instructions: 910000002 cycles: 3243576665 heartbeat IPC: 0.317893 cumulative IPC: 0.280555 (Simulation time: 3 hr 9 min 0 sec) 
Heartbeat CPU 1 instructions: 890000003 cycles: 3252431284 heartbeat IPC: 0.301138 cumulative IPC: 0.273641 (Simulation time: 3 hr 9 min 23 sec) 
Heartbeat CPU 0 instructions: 840000000 cycles: 3256180844 heartbeat IPC: 0.267533 cumulative IPC: 0.257971 (Simulation time: 3 hr 9 min 37 sec) 
Heartbeat CPU 3 instructions: 920000000 cycles: 3269778064 heartbeat IPC: 0.381659 cumulative IPC: 0.281365 (Simulation time: 3 hr 10 min 12 sec) 
Heartbeat CPU 2 instructions: 850000000 cycles: 3278019977 heartbeat IPC: 0.22663 cumulative IPC: 0.259303 (Simulation time: 3 hr 10 min 30 sec) 
*** Reached end of trace for Core: 1 Repeating trace: /data/behnam/ChampSim/tracer/behnam_trace/nutch_phase0_core1.trace.gz
Heartbeat CPU 1 instructions: 900000000 cycles: 3290095669 heartbeat IPC: 0.265503 cumulative IPC: 0.273548 (Simulation time: 3 hr 10 min 58 sec) 
Heartbeat CPU 0 instructions: 850000002 cycles: 3297573616 heartbeat IPC: 0.241588 cumulative IPC: 0.257765 (Simulation time: 3 hr 11 min 19 sec) 
Heartbeat CPU 3 instructions: 930000001 cycles: 3309279256 heartbeat IPC: 0.253157 cumulative IPC: 0.281028 (Simulation time: 3 hr 11 min 49 sec) 
Heartbeat CPU 2 instructions: 860000000 cycles: 3317305142 heartbeat IPC: 0.254549 cumulative IPC: 0.259247 (Simulation time: 3 hr 12 min 11 sec) 
Heartbeat CPU 1 instructions: 910000002 cycles: 3319814580 heartbeat IPC: 0.336486 cumulative IPC: 0.274112 (Simulation time: 3 hr 12 min 17 sec) 
Heartbeat CPU 0 instructions: 860000000 cycles: 3339405794 heartbeat IPC: 0.23905 cumulative IPC: 0.257531 (Simulation time: 3 hr 13 min 5 sec) 
Heartbeat CPU 3 instructions: 940000000 cycles: 3346941420 heartbeat IPC: 0.265518 cumulative IPC: 0.280853 (Simulation time: 3 hr 13 min 25 sec) 
Heartbeat CPU 1 instructions: 920000000 cycles: 3353710228 heartbeat IPC: 0.295023 cumulative IPC: 0.274323 (Simulation time: 3 hr 13 min 43 sec) 
Heartbeat CPU 2 instructions: 870000001 cycles: 3354220656 heartbeat IPC: 0.270889 cumulative IPC: 0.259375 (Simulation time: 3 hr 13 min 45 sec) 
Heartbeat CPU 0 instructions: 870000001 cycles: 3377837694 heartbeat IPC: 0.260201 cumulative IPC: 0.257561 (Simulation time: 3 hr 14 min 40 sec) 
Heartbeat CPU 3 instructions: 950000002 cycles: 3379765531 heartbeat IPC: 0.304654 cumulative IPC: 0.281085 (Simulation time: 3 hr 14 min 44 sec) 
Heartbeat CPU 1 instructions: 930000001 cycles: 3393996063 heartbeat IPC: 0.248226 cumulative IPC: 0.274013 (Simulation time: 3 hr 15 min 20 sec) 
Heartbeat CPU 2 instructions: 880000000 cycles: 3394376644 heartbeat IPC: 0.249029 cumulative IPC: 0.259252 (Simulation time: 3 hr 15 min 21 sec) 
Heartbeat CPU 3 instructions: 960000000 cycles: 3414407961 heartbeat IPC: 0.288663 cumulative IPC: 0.281161 (Simulation time: 3 hr 16 min 14 sec) 
Heartbeat CPU 0 instructions: 880000000 cycles: 3416919343 heartbeat IPC: 0.255875 cumulative IPC: 0.257542 (Simulation time: 3 hr 16 min 20 sec) 
Heartbeat CPU 2 instructions: 890000000 cycles: 3432009696 heartbeat IPC: 0.265724 cumulative IPC: 0.259323 (Simulation time: 3 hr 16 min 57 sec) 
Heartbeat CPU 1 instructions: 940000000 cycles: 3432909704 heartbeat IPC: 0.256979 cumulative IPC: 0.27382 (Simulation time: 3 hr 16 min 59 sec) 
Heartbeat CPU 0 instructions: 890000001 cycles: 3453998320 heartbeat IPC: 0.269695 cumulative IPC: 0.257672 (Simulation time: 3 hr 17 min 49 sec) 
Heartbeat CPU 3 instructions: 970000002 cycles: 3455027450 heartbeat IPC: 0.246187 cumulative IPC: 0.28075 (Simulation time: 3 hr 17 min 52 sec) 
Heartbeat CPU 1 instructions: 950000003 cycles: 3467201886 heartbeat IPC: 0.291612 cumulative IPC: 0.273996 (Simulation time: 3 hr 18 min 23 sec) 
*** Reached end of trace for Core: 2 Repeating trace: /data/behnam/ChampSim/tracer/behnam_trace/nutch_phase0_core2.trace.gz
Heartbeat CPU 2 instructions: 900000000 cycles: 3468445302 heartbeat IPC: 0.274457 cumulative IPC: 0.259482 (Simulation time: 3 hr 18 min 26 sec) 
*** Reached end of trace for Core: 0 Repeating trace: /data/behnam/ChampSim/tracer/behnam_trace/nutch_phase0_core0.trace.gz
Heartbeat CPU 0 instructions: 900000000 cycles: 3490983641 heartbeat IPC: 0.270378 cumulative IPC: 0.257807 (Simulation time: 3 hr 19 min 21 sec) 
Heartbeat CPU 3 instructions: 980000000 cycles: 3491637836 heartbeat IPC: 0.273146 cumulative IPC: 0.280671 (Simulation time: 3 hr 19 min 23 sec) 
Heartbeat CPU 1 instructions: 960000000 cycles: 3505686460 heartbeat IPC: 0.259844 cumulative IPC: 0.273841 (Simulation time: 3 hr 19 min 58 sec) 
Heartbeat CPU 2 instructions: 910000002 cycles: 3506643212 heartbeat IPC: 0.261794 cumulative IPC: 0.259507 (Simulation time: 3 hr 20 min 0 sec) 
Heartbeat CPU 3 instructions: 990000001 cycles: 3528876742 heartbeat IPC: 0.268536 cumulative IPC: 0.280543 (Simulation time: 3 hr 20 min 55 sec) 
Heartbeat CPU 0 instructions: 910000002 cycles: 3529058367 heartbeat IPC: 0.262641 cumulative IPC: 0.257859 (Simulation time: 3 hr 20 min 55 sec) 
Heartbeat CPU 2 instructions: 920000000 cycles: 3542110629 heartbeat IPC: 0.281949 cumulative IPC: 0.259732 (Simulation time: 3 hr 21 min 28 sec) 
Heartbeat CPU 1 instructions: 970000002 cycles: 3546176806 heartbeat IPC: 0.246973 cumulative IPC: 0.273534 (Simulation time: 3 hr 21 min 38 sec) 
Heartbeat CPU 0 instructions: 920000000 cycles: 3565134855 heartbeat IPC: 0.277189 cumulative IPC: 0.258055 (Simulation time: 3 hr 22 min 26 sec) 
*** Reached end of trace for Core: 3 Repeating trace: /data/behnam/ChampSim/tracer/behnam_trace/nutch_phase0_core3.trace.gz
Heartbeat CPU 3 instructions: 1000000000 cycles: 3569139379 heartbeat IPC: 0.248369 cumulative IPC: 0.28018 (Simulation time: 3 hr 22 min 35 sec) 
Finished CPU 3 instructions: 1000000002 cycles: 3569139361 cumulative IPC: 0.28018 (Simulation time: 3 hr 22 min 35 sec) 
Heartbeat CPU 2 instructions: 930000000 cycles: 3578956395 heartbeat IPC: 0.271402 cumulative IPC: 0.259852 (Simulation time: 3 hr 22 min 57 sec) 
Heartbeat CPU 1 instructions: 980000000 cycles: 3585006337 heartbeat IPC: 0.257536 cumulative IPC: 0.273361 (Simulation time: 3 hr 23 min 11 sec) 
Heartbeat CPU 3 instructions: 1010000001 cycles: 3600598090 heartbeat IPC: 0.317877 cumulative IPC: 0.280509 (Simulation time: 3 hr 23 min 53 sec) 
Heartbeat CPU 0 instructions: 930000002 cycles: 3606943392 heartbeat IPC: 0.239186 cumulative IPC: 0.257836 (Simulation time: 3 hr 24 min 8 sec) 
Heartbeat CPU 1 instructions: 990000001 cycles: 3618219608 heartbeat IPC: 0.301084 cumulative IPC: 0.273615 (Simulation time: 3 hr 24 min 42 sec) 
Heartbeat CPU 2 instructions: 940000000 cycles: 3619412383 heartbeat IPC: 0.247182 cumulative IPC: 0.259711 (Simulation time: 3 hr 24 min 45 sec) 
Heartbeat CPU 3 instructions: 1020000000 cycles: 3626759685 heartbeat IPC: 0.38224 cumulative IPC: 0.281243 (Simulation time: 3 hr 25 min 4 sec) 
Heartbeat CPU 0 instructions: 940000000 cycles: 3644304039 heartbeat IPC: 0.267661 cumulative IPC: 0.257937 (Simulation time: 3 hr 25 min 44 sec) 
*** Reached end of trace for Core: 1 Repeating trace: /data/behnam/ChampSim/tracer/behnam_trace/nutch_phase0_core1.trace.gz
Heartbeat CPU 1 instructions: 1000000000 cycles: 3655933322 heartbeat IPC: 0.265155 cumulative IPC: 0.273528 (Simulation time: 3 hr 26 min 12 sec) 
Finished CPU 1 instructions: 1000000003 cycles: 3655933304 cumulative IPC: 0.273528 (Simulation time: 3 hr 26 min 12 sec) 
Heartbeat CPU 2 instructions: 950000002 cycles: 3663651084 heartbeat IPC: 0.226046 cumulative IPC: 0.259304 (Simulation time: 3 hr 26 min 33 sec) 
Heartbeat CPU 3 instructions: 1030000003 cycles: 3666267221 heartbeat IPC: 0.253116 cumulative IPC: 0.28094 (Simulation time: 3 hr 26 min 40 sec) 
Heartbeat CPU 0 instructions: 950000003 cycles: 3685699799 heartbeat IPC: 0.241571 cumulative IPC: 0.257753 (Simulation time: 3 hr 27 min 29 sec) 
Heartbeat CPU 1 instructions: 1010000000 cycles: 3685727391 heartbeat IPC: 0.335637 cumulative IPC: 0.27403 (Simulation time: 3 hr 27 min 29 sec) 
Heartbeat CPU 2 instructions: 960000000 cycles: 3702863736 heartbeat IPC: 0.25502 cumulative IPC: 0.259259 (Simulation time: 3 hr 28 min 11 sec) 
Heartbeat CPU 3 instructions: 1040000000 cycles: 3703986525 heartbeat IPC: 0.265116 cumulative IPC: 0.280779 (Simulation time: 3 hr 28 min 13 sec) 
Heartbeat CPU 1 instructions: 1020000000 cycles: 3719616140 heartbeat IPC: 0.295083 cumulative IPC: 0.274222 (Simulation time: 3 hr 28 min 59 sec) 
Heartbeat CPU 0 instructions: 960000000 cycles: 3727527475 heartbeat IPC: 0.239076 cumulative IPC: 0.257543 (Simulation time: 3 hr 29 min 18 sec) 
Heartbeat CPU 3 instructions: 1050000000 cycles: 3736752029 heartbeat IPC: 0.305199 cumulative IPC: 0.280993 (Simulation time: 3 hr 29 min 37 sec) 
Heartbeat CPU 2 instructions: 970000001 cycles: 3739796367 heartbeat IPC: 0.270763 cumulative IPC: 0.259372 (Simulation time: 3 hr 29 min 44 sec) 
Heartbeat CPU 1 instructions: 1030000003 cycles: 3759858196 heartbeat IPC: 0.248496 cumulative IPC: 0.273946 (Simulation time: 3 hr 30 min 32 sec) 
Heartbeat CPU 0 instructions: 970000001 cycles: 3765988146 heartbeat IPC: 0.260006 cumulative IPC: 0.257569 (Simulation time: 3 hr 30 min 49 sec) 
Heartbeat CPU 3 instructions: 1060000000 cycles: 3771419595 heartbeat IPC: 0.288454 cumulative IPC: 0.281061 (Simulation time: 3 hr 31 min 3 sec) 
Heartbeat CPU 2 instructions: 980000000 cycles: 3779918558 heartbeat IPC: 0.249239 cumulative IPC: 0.259265 (Simulation time: 3 hr 31 min 27 sec) 
Heartbeat CPU 1 instructions: 1040000000 cycles: 3798739680 heartbeat IPC: 0.257192 cumulative IPC: 0.273775 (Simulation time: 3 hr 32 min 13 sec) 
Heartbeat CPU 0 instructions: 980000000 cycles: 3804998966 heartbeat IPC: 0.256339 cumulative IPC: 0.257556 (Simulation time: 3 hr 32 min 26 sec) 
Heartbeat CPU 3 instructions: 1070000001 cycles: 3811992768 heartbeat IPC: 0.246468 cumulative IPC: 0.280693 (Simulation time: 3 hr 32 min 47 sec) 
Heartbeat CPU 2 instructions: 990000003 cycles: 3817637554 heartbeat IPC: 0.265118 cumulative IPC: 0.259323 (Simulation time: 3 hr 33 min 0 sec) 
Heartbeat CPU 1 instructions: 1050000001 cycles: 3833051521 heartbeat IPC: 0.291445 cumulative IPC: 0.273933 (Simulation time: 3 hr 33 min 41 sec) 
Heartbeat CPU 0 instructions: 990000002 cycles: 3842113135 heartbeat IPC: 0.269439 cumulative IPC: 0.257671 (Simulation time: 3 hr 34 min 2 sec) 
Heartbeat CPU 3 instructions: 1080000000 cycles: 3848601945 heartbeat IPC: 0.273156 cumulative IPC: 0.280621 (Simulation time: 3 hr 34 min 16 sec) 
*** Reached end of trace for Core: 2 Repeating trace: /data/behnam/ChampSim/tracer/behnam_trace/nutch_phase0_core2.trace.gz
Heartbeat CPU 2 instructions: 1000000000 cycles: 3854050397 heartbeat IPC: 0.274628 cumulative IPC: 0.259467 (Simulation time: 3 hr 34 min 29 sec) 
Finished CPU 2 instructions: 1000000000 cycles: 3854050389 cumulative IPC: 0.259467 (Simulation time: 3 hr 34 min 29 sec) 
Heartbeat CPU 1 instructions: 1060000000 cycles: 3871582263 heartbeat IPC: 0.259533 cumulative IPC: 0.27379 (Simulation time: 3 hr 35 min 12 sec) 
*** Reached end of trace for Core: 0 Repeating trace: /data/behnam/ChampSim/tracer/behnam_trace/nutch_phase0_core0.trace.gz
Heartbeat CPU 0 instructions: 1000000000 cycles: 3879166596 heartbeat IPC: 0.26988 cumulative IPC: 0.257787 (Simulation time: 3 hr 35 min 32 sec) 
Finished CPU 0 instructions: 1000000000 cycles: 3879166584 cumulative IPC: 0.257787 (Simulation time: 3 hr 35 min 32 sec) 

CPU 0 Branch Prediction Accuracy: 93.6022% MPKI: 10.7136

CPU 1 Branch Prediction Accuracy: 93.5783% MPKI: 10.693

CPU 2 Branch Prediction Accuracy: 93.2809% MPKI: 11.2789

CPU 3 Branch Prediction Accuracy: 93.9708% MPKI: 10.1569

ChampSim completed all CPUs

Total Simulation Statistics (not including warmup)

CPU 0 cumulative IPC: 0.257787 instructions: 1000000000 cycles: 3879166584
L1D TOTAL     ACCESS:  202215273  HIT:  195407029  MISS:    6808244
L1D LOAD      ACCESS:  110555619  HIT:  105266972  MISS:    5288647
L1D RFO       ACCESS:   91659654  HIT:   90140057  MISS:    1519597
L1D PREFETCH  ACCESS:          0  HIT:          0  MISS:          0
L1D WRITEBACK ACCESS:          0  HIT:          0  MISS:          0
L1I TOTAL     ACCESS:  202988140  HIT:  195932806  MISS:    7055334
L1I LOAD      ACCESS:  202988140  HIT:  195932806  MISS:    7055334
L1I RFO       ACCESS:          0  HIT:          0  MISS:          0
L1I PREFETCH  ACCESS:          0  HIT:          0  MISS:          0
L1I WRITEBACK ACCESS:          0  HIT:          0  MISS:          0
L2C TOTAL     ACCESS:   17691441  HIT:   13620143  MISS:    4071298
L2C LOAD      ACCESS:   12343656  HIT:    8680584  MISS:    3663072
L2C RFO       ACCESS:    1518898  HIT:    1132072  MISS:     386826
L2C PREFETCH  ACCESS:          0  HIT:          0  MISS:          0
L2C WRITEBACK ACCESS:    3828887  HIT:    3807487  MISS:      21400
LLC TOTAL     ACCESS:    6272740  HIT:    3065037  MISS:    3207703
LLC LOAD      ACCESS:    3663070  HIT:     812869  MISS:    2850201
LLC RFO       ACCESS:     386826  HIT:      48183  MISS:     338643
LLC PREFETCH  ACCESS:          0  HIT:          0  MISS:          0
LLC WRITEBACK ACCESS:    2222844  HIT:    2203985  MISS:      18859

CPU 1 cumulative IPC: 0.273716 instructions: 1061789139 cycles: 3879166584
L1D TOTAL     ACCESS:  208275739  HIT:  200866197  MISS:    7409542
L1D LOAD      ACCESS:  113758694  HIT:  108350267  MISS:    5408427
L1D RFO       ACCESS:   94517045  HIT:   92515930  MISS:    2001115
L1D PREFETCH  ACCESS:          0  HIT:          0  MISS:          0
L1D WRITEBACK ACCESS:          0  HIT:          0  MISS:          0
L1I TOTAL     ACCESS:  218624573  HIT:  212921854  MISS:    5702719
L1I LOAD      ACCESS:  218624573  HIT:  212921854  MISS:    5702719
L1I RFO       ACCESS:          0  HIT:          0  MISS:          0
L1I PREFETCH  ACCESS:          0  HIT:          0  MISS:          0
L1I WRITEBACK ACCESS:          0  HIT:          0  MISS:          0
L2C TOTAL     ACCESS:   17525725  HIT:   13177879  MISS:    4347846
L2C LOAD      ACCESS:   11110923  HIT:    7289498  MISS:    3821425
L2C RFO       ACCESS:    1996787  HIT:    1487981  MISS:     508806
L2C PREFETCH  ACCESS:          0  HIT:          0  MISS:          0
L2C WRITEBACK ACCESS:    4418015  HIT:    4400400  MISS:      17615
LLC TOTAL     ACCESS:    6829807  HIT:    3324073  MISS:    3505734
LLC LOAD      ACCESS:    3821415  HIT:     760919  MISS:    3060496
LLC RFO       ACCESS:     508797  HIT:      77811  MISS:     430986
LLC PREFETCH  ACCESS:          0  HIT:          0  MISS:          0
LLC WRITEBACK ACCESS:    2499595  HIT:    2485343  MISS:      14252

CPU 2 cumulative IPC: 0.259534 instructions: 1006774009 cycles: 3879166584
L1D TOTAL     ACCESS:  200554798  HIT:  194365145  MISS:    6189653
L1D LOAD      ACCESS:  109103475  HIT:  104264077  MISS:    4839398
L1D RFO       ACCESS:   91451323  HIT:   90101068  MISS:    1350255
L1D PREFETCH  ACCESS:          0  HIT:          0  MISS:          0
L1D WRITEBACK ACCESS:          0  HIT:          0  MISS:          0
L1I TOTAL     ACCESS:  206500822  HIT:  202618587  MISS:    3882235
L1I LOAD      ACCESS:  206500822  HIT:  202618587  MISS:    3882235
L1I RFO       ACCESS:          0  HIT:          0  MISS:          0
L1I PREFETCH  ACCESS:          0  HIT:          0  MISS:          0
L1I WRITEBACK ACCESS:          0  HIT:          0  MISS:          0
L2C TOTAL     ACCESS:   13822276  HIT:    9561611  MISS:    4260665
L2C LOAD      ACCESS:    8721393  HIT:    4886070  MISS:    3835323
L2C RFO       ACCESS:    1349321  HIT:     938232  MISS:     411089
L2C PREFETCH  ACCESS:          0  HIT:          0  MISS:          0
L2C WRITEBACK ACCESS:    3751562  HIT:    3737309  MISS:      14253
LLC TOTAL     ACCESS:    6805147  HIT:    3333248  MISS:    3471899
LLC LOAD      ACCESS:    3835300  HIT:     753744  MISS:    3081556
LLC RFO       ACCESS:     411034  HIT:      36210  MISS:     374824
LLC PREFETCH  ACCESS:          0  HIT:          0  MISS:          0
LLC WRITEBACK ACCESS:    2558813  HIT:    2543294  MISS:      15519

CPU 3 cumulative IPC: 0.280418 instructions: 1087787263 cycles: 3879166584
L1D TOTAL     ACCESS:  219442070  HIT:  212366096  MISS:    7075974
L1D LOAD      ACCESS:  123552620  HIT:  118129085  MISS:    5423535
L1D RFO       ACCESS:   95889450  HIT:   94237011  MISS:    1652439
L1D PREFETCH  ACCESS:          0  HIT:          0  MISS:          0
L1D WRITEBACK ACCESS:          0  HIT:          0  MISS:          0
L1I TOTAL     ACCESS:  222136218  HIT:  215135305  MISS:    7000913
L1I LOAD      ACCESS:  222136218  HIT:  215135305  MISS:    7000913
L1I RFO       ACCESS:          0  HIT:          0  MISS:          0
L1I PREFETCH  ACCESS:          0  HIT:          0  MISS:          0
L1I WRITEBACK ACCESS:          0  HIT:          0  MISS:          0
L2C TOTAL     ACCESS:   18057388  HIT:   13931956  MISS:    4125432
L2C LOAD      ACCESS:   12423942  HIT:    8720110  MISS:    3703832
L2C RFO       ACCESS:    1651621  HIT:    1250529  MISS:     401092
L2C PREFETCH  ACCESS:          0  HIT:          0  MISS:          0
L2C WRITEBACK ACCESS:    3981825  HIT:    3961317  MISS:      20508
LLC TOTAL     ACCESS:    6261105  HIT:    3077685  MISS:    3183420
LLC LOAD      ACCESS:    3703826  HIT:     873709  MISS:    2830117
LLC RFO       ACCESS:     401086  HIT:      68569  MISS:     332517
LLC PREFETCH  ACCESS:          0  HIT:          0  MISS:          0
LLC WRITEBACK ACCESS:    2156193  HIT:    2135407  MISS:      20786

Region of Interest Statistics

CPU 0 cumulative IPC: 0.257787 instructions: 1000000000 cycles: 3879166584
L1D TOTAL     ACCESS:  202215273  HIT:  195407029  MISS:    6808244
L1D LOAD      ACCESS:  110555619  HIT:  105266972  MISS:    5288647
L1D RFO       ACCESS:   91659654  HIT:   90140057  MISS:    1519597
L1D PREFETCH  ACCESS:          0  HIT:          0  MISS:          0
L1D WRITEBACK ACCESS:          0  HIT:          0  MISS:          0
L1D PREFETCH  REQUESTED:          0  ISSUED:          0  USEFUL:          0  USELESS:          0
L1I TOTAL     ACCESS:  202988140  HIT:  195932806  MISS:    7055334
L1I LOAD      ACCESS:  202988140  HIT:  195932806  MISS:    7055334
L1I RFO       ACCESS:          0  HIT:          0  MISS:          0
L1I PREFETCH  ACCESS:          0  HIT:          0  MISS:          0
L1I WRITEBACK ACCESS:          0  HIT:          0  MISS:          0
L1I PREFETCH  REQUESTED:          0  ISSUED:          0  USEFUL:          0  USELESS:          0
L2C TOTAL     ACCESS:   17691441  HIT:   13620143  MISS:    4071298
L2C LOAD      ACCESS:   12343656  HIT:    8680584  MISS:    3663072
L2C RFO       ACCESS:    1518898  HIT:    1132072  MISS:     386826
L2C PREFETCH  ACCESS:          0  HIT:          0  MISS:          0
L2C WRITEBACK ACCESS:    3828887  HIT:    3807487  MISS:      21400
L2C PREFETCH  REQUESTED:          0  ISSUED:          0  USEFUL:          0  USELESS:          0
LLC TOTAL     ACCESS:    6272740  HIT:    3065037  MISS:    3207703
LLC LOAD      ACCESS:    3663070  HIT:     812869  MISS:    2850201
LLC RFO       ACCESS:     386826  HIT:      48183  MISS:     338643
LLC PREFETCH  ACCESS:          0  HIT:          0  MISS:          0
LLC WRITEBACK ACCESS:    2222844  HIT:    2203985  MISS:      18859
LLC PREFETCH  REQUESTED:          0  ISSUED:          0  USEFUL:          0  USELESS:          0
Major fault: 0 Minor fault: 6846

CPU 1 cumulative IPC: 0.273528 instructions: 1000000003 cycles: 3655933304
L1D TOTAL     ACCESS:  196123765  HIT:  189133292  MISS:    6990473
L1D LOAD      ACCESS:  107108976  HIT:  102004588  MISS:    5104388
L1D RFO       ACCESS:   89014789  HIT:   87128704  MISS:    1886085
L1D PREFETCH  ACCESS:          0  HIT:          0  MISS:          0
L1D WRITEBACK ACCESS:          0  HIT:          0  MISS:          0
L1D PREFETCH  REQUESTED:          0  ISSUED:          0  USEFUL:          0  USELESS:          0
L1I TOTAL     ACCESS:  205946269  HIT:  200579359  MISS:    5366910
L1I LOAD      ACCESS:  205946269  HIT:  200579359  MISS:    5366910
L1I RFO       ACCESS:          0  HIT:          0  MISS:          0
L1I PREFETCH  ACCESS:          0  HIT:          0  MISS:          0
L1I WRITEBACK ACCESS:          0  HIT:          0  MISS:          0
L1I PREFETCH  REQUESTED:          0  ISSUED:          0  USEFUL:          0  USELESS:          0
L2C TOTAL     ACCESS:   16517285  HIT:   12412143  MISS:    4105142
L2C LOAD      ACCESS:   10471092  HIT:    6861014  MISS:    3610078
L2C RFO       ACCESS:    1882118  HIT:    1403659  MISS:     478459
L2C PREFETCH  ACCESS:          0  HIT:          0  MISS:          0
L2C WRITEBACK ACCESS:    4164075  HIT:    4147470  MISS:      16605
L2C PREFETCH  REQUESTED:          0  ISSUED:          0  USEFUL:          0  USELESS:          0
LLC TOTAL     ACCESS:    6445301  HIT:    3135077  MISS:    3310224
LLC LOAD      ACCESS:    3610068  HIT:     718701  MISS:    2891367
LLC RFO       ACCESS:     478450  HIT:      73148  MISS:     405302
LLC PREFETCH  ACCESS:          0  HIT:          0  MISS:          0
LLC WRITEBACK ACCESS:    2356783  HIT:    2343228  MISS:      13555
LLC PREFETCH  REQUESTED:          0  ISSUED:          0  USEFUL:          0  USELESS:          0
Major fault: 0 Minor fault: 6867

CPU 2 cumulative IPC: 0.259467 instructions: 1000000000 cycles: 3854050389
L1D TOTAL     ACCESS:  199238636  HIT:  193118268  MISS:    6120368
L1D LOAD      ACCESS:  108351223  HIT:  103560915  MISS:    4790308
L1D RFO       ACCESS:   90887413  HIT:   89557353  MISS:    1330060
L1D PREFETCH  ACCESS:          0  HIT:          0  MISS:          0
L1D WRITEBACK ACCESS:          0  HIT:          0  MISS:          0
L1D PREFETCH  REQUESTED:          0  ISSUED:          0  USEFUL:          0  USELESS:          0
L1I TOTAL     ACCESS:  205103624  HIT:  201324091  MISS:    3779533
L1I LOAD      ACCESS:  205103624  HIT:  201324091  MISS:    3779533
L1I RFO       ACCESS:          0  HIT:          0  MISS:          0
L1I PREFETCH  ACCESS:          0  HIT:          0  MISS:          0
L1I WRITEBACK ACCESS:          0  HIT:          0  MISS:          0
L1I PREFETCH  REQUESTED:          0  ISSUED:          0  USEFUL:          0  USELESS:          0
L2C TOTAL     ACCESS:   13617421  HIT:    9393194  MISS:    4224227
L2C LOAD      ACCESS:    8569608  HIT:    4765860  MISS:    3803748
L2C RFO       ACCESS:    1329141  HIT:     922609  MISS:     406532
L2C PREFETCH  ACCESS:          0  HIT:          0  MISS:          0
L2C WRITEBACK ACCESS:    3718672  HIT:    3704725  MISS:      13947
L2C PREFETCH  REQUESTED:          0  ISSUED:          0  USEFUL:          0  USELESS:          0
LLC TOTAL     ACCESS:    6759519  HIT:    3311524  MISS:    3447995
LLC LOAD      ACCESS:    3803726  HIT:     742041  MISS:    3061685
LLC RFO       ACCESS:     406477  HIT:      35631  MISS:     370846
LLC PREFETCH  ACCESS:          0  HIT:          0  MISS:          0
LLC WRITEBACK ACCESS:    2549316  HIT:    2533852  MISS:      15464
LLC PREFETCH  REQUESTED:          0  ISSUED:          0  USEFUL:          0  USELESS:          0
Major fault: 0 Minor fault: 7459

CPU 3 cumulative IPC: 0.28018 instructions: 1000000002 cycles: 3569139361
L1D TOTAL     ACCESS:  201700674  HIT:  195205512  MISS:    6495162
L1D LOAD      ACCESS:  113502598  HIT:  108523159  MISS:    4979439
L1D RFO       ACCESS:   88198076  HIT:   86682353  MISS:    1515723
L1D PREFETCH  ACCESS:          0  HIT:          0  MISS:          0
L1D WRITEBACK ACCESS:          0  HIT:          0  MISS:          0
L1D PREFETCH  REQUESTED:          0  ISSUED:          0  USEFUL:          0  USELESS:          0
L1I TOTAL     ACCESS:  204221350  HIT:  197822321  MISS:    6399029
L1I LOAD      ACCESS:  204221350  HIT:  197822321  MISS:    6399029
L1I RFO       ACCESS:          0  HIT:          0  MISS:          0
L1I PREFETCH  ACCESS:          0  HIT:          0  MISS:          0
L1I WRITEBACK ACCESS:          0  HIT:          0  MISS:          0
L1I PREFETCH  REQUESTED:          0  ISSUED:          0  USEFUL:          0  USELESS:          0
L2C TOTAL     ACCESS:   16552440  HIT:   12755708  MISS:    3796732
L2C LOAD      ACCESS:   11378009  HIT:    7969096  MISS:    3408913
L2C RFO       ACCESS:    1514960  HIT:    1145943  MISS:     369017
L2C PREFETCH  ACCESS:          0  HIT:          0  MISS:          0
L2C WRITEBACK ACCESS:    3659471  HIT:    3640669  MISS:      18802
[...]
4075,1,37,186,1,2,4,4,2,1,4,1,4,1,2,3,2,2,1,3,186,0,208,0
4075,2,40,188,3,2,6,1,5,1,1,2,5,0,1,1,1,5,1,5,188,0,210,0
4075,3,27,195,2,2,3,0,4,2,1,2,3,1,2,0,1,1,2,1,195,0,193,0
4075,4,41,189,3,2,2,3,5,2,3,1,5,1,3,4,3,0,3,1,189,0,207,0
4075,5,29,188,4,0,2,0,0,2,2,3,2,1,2,3,2,4,1,1,188,0,194,0
4075,6,51,185,7,1,2,4,3,2,2,3,8,0,3,0,5,3,4,4,185,0,213,0
4075,7,28,188,0,3,1,1,3,0,4,0,1,1,3,3,2,2,1,3,188,0,196,0
4075,8,40,187,6,1,3,1,3,2,2,0,3,4,1,4,4,4,2,0,187,0,204,0
4075,9,40,189,4,0,4,0,4,0,4,2,4,3,2,3,2,3,3,2,189,0,210,0
4075,10,37,182,1,6,4,0,3,2,5,2,2,1,3,3,2,1,1,1,182,0,203,0
4075,11,67,180,11,2,8,4,7,0,3,2,11,1,2,2,3,5,5,1,180,0,230,0
4075,12,33,188,3,2,3,2,2,1,1,3,4,0,3,2,3,0,4,0,188,0,202,0
4075,13,37,185,3,1,2,1,3,2,1,1,8,4,3,1,2,1,2,2,185,0,197,0
4075,14,39,191,7,4,1,0,4,3,2,0,5,1,3,3,2,0,2,2,191,0,197,0
4075,15,47,183,3,5,1,1,10,1,3,2,5,0,1,4,3,3,1,4,183,0,205,0
4076,0,30,183,1,2,4,2,2,1,1,1,3,4,2,0,2,0,2,3,183,0,188,0
4076,1,47,180,0,3,7,3,7,2,4,0,3,3,4,1,3,2,4,1,180,0,209,0
4076,2,26,186,0,2,1,4,4,1,1,0,3,1,1,0,0,2,4,2,186,0,188,0
4076,3,37,186,1,1,3,5,7,4,2,1,2,1,1,0,5,0,4,0,186,0,210,0
4076,4,38,178,1,1,3,3,5,2,4,3,1,2,0,1,4,1,3,4,178,0,192,0
4076,5,45,179,1,4,5,0,0,3,4,0,4,1,7,3,3,3,5,2,179,0,210,0
4076,6,34,181,0,1,5,1,2,1,7,3,4,1,4,0,1,2,0,2,181,0,194,0
4076,7,51,176,0,2,5,2,5,1,3,0,4,3,5,1,6,5,8,1,176,0,209,0
4076,8,37,186,1,2,3,2,1,0,2,1,8,2,1,2,6,2,3,1,186,0,207,0
4076,9,38,180,0,1,4,2,3,3,3,3,2,2,2,2,5,2,2,2,180,0,196,0
4076,10,43,177,1,1,5,5,5,3,0,5,0,5,4,4,3,0,1,1,177,0,196,0
4076,11,48,174,0,5,6,5,3,6,1,1,0,3,3,2,4,3,4,2,174,0,201,0
4076,12,29,185,1,3,1,1,5,1,5,0,5,2,0,1,3,0,1,0,185,0,197,0
4076,13,57,178,3,2,1,1,6,4,5,3,8,2,5,0,8,2,6,1,178,0,213,0
4076,14,45,177,0,2,8,1,6,1,7,0,1,4,7,2,2,0,1,3,177,0,197,0
4076,15,36,175,1,3,1,3,2,1,2,0,9,3,1,3,4,1,2,0,175,0,190,0
4077,0,27,171,1,1,5,1,2,1,4,0,1,2,0,2,3,1,2,1,171,0,182,0
4077,1,26,169,1,2,3,3,1,0,2,3,3,1,1,2,1,0,3,0,169,0,177,0
4077,2,30,174,2,2,4,1,1,2,2,0,3,1,1,2,3,6,0,0,174,0,187,0
4077,3,35,175,1,2,5,1,5,2,1,1,4,3,3,0,2,3,1,1,175,0,194,0
4077,4,36,167,3,2,2,0,4,3,2,3,5,1,5,0,3,0,2,1,167,0,187,0
4077,5,26,168,1,2,3,1,2,0,0,1,3,1,0,2,5,0,3,2,168,0,169,0
4077,6,32,163,0,2,2,0,2,2,3,3,1,2,3,1,3,2,4,2,163,0,180,0
4077,7,33,172,4,1,1,1,5,1,0,0,3,0,1,2,11,0,3,0,172,0,172,0
4077,8,38,171,4,1,4,0,3,3,3,1,2,2,2,0,6,2,5,0,171,0,189,0
4077,9,31,169,2,2,2,3,5,0,5,2,0,0,2,0,2,3,2,1,169,0,183,0
4077,10,27,173,1,1,4,2,2,2,0,2,1,4,2,0,3,1,1,1,173,0,179,0
4077,11,33,169,1,4,1,2,2,1,7,2,2,3,2,2,2,0,0,2,169,0,183,0
4077,12,30,175,3,0,2,2,5,2,0,1,3,0,3,2,5,1,1,0,175,0,172,0
4077,13,28,174,0,2,2,2,3,2,5,0,3,1,3,0,4,1,0,0,174,0,179,0
4077,14,29,168,1,2,2,1,3,4,1,0,4,2,1,2,0,0,4,2,168,0,178,0
4077,15,40,169,3,1,4,1,3,1,3,3,2,1,5,0,4,3,4,2,169,0,182,0
4078,0,39,187,0,2,3,1,5,2,5,1,1,0,6,0,9,2,1,1,187,0,196,0
4078,1,39,184,2,3,5,0,2,1,6,1,1,1,8,1,2,3,2,1,184,0,206,0
4078,2,32,188,1,0,3,2,2,2,5,4,4,3,1,2,1,2,0,0,188,0,198,0
4078,3,35,190,0,1,3,1,4,2,2,2,6,2,3,3,3,0,1,2,190,0,196,0
4078,4,36,181,0,2,3,0,2,3,2,0,2,1,9,2,5,1,3,1,181,0,194,0
4078,5,39,184,2,1,4,0,7,1,8,2,2,0,3,1,1,1,5,1,184,0,196,0
4078,6,24,194,0,1,3,0,4,1,3,1,4,0,1,0,3,2,1,0,194,0,200,0
4078,7,28,189,0,2,2,1,0,3,7,2,0,1,3,0,6,0,1,0,189,0,195,0
4078,8,39,181,2,3,3,0,4,2,6,2,4,3,0,1,3,1,4,1,181,0,193,0
4078,9,41,183,1,0,4,2,6,1,7,1,0,1,7,3,3,1,2,2,183,0,208,0
4078,10,49,180,1,1,7,1,5,3,0,3,2,4,6,3,6,2,4,1,180,0,212,0
4078,11,34,182,0,1,8,0,1,3,0,2,0,5,6,3,2,1,2,0,182,0,189,0
4078,12,31,185,0,2,0,3,6,0,1,0,4,2,4,2,1,2,3,1,185,0,190,0
4078,13,37,185,0,1,4,2,5,1,2,1,0,3,4,3,9,0,2,0,185,0,203,0
4078,14,36,187,0,3,2,1,5,0,1,2,2,2,5,1,4,0,7,1,187,0,201,0
4078,15,27,184,0,0,2,4,3,1,1,0,4,3,0,3,4,1,1,0,184,0,186,0
4079,0,58,185,1,5,6,1,6,2,10,5,3,2,5,0,9,0,2,1,185,0,214,0
4079,1,40,189,1,0,5,2,2,2,4,1,3,2,5,1,4,1,5,2,189,0,209,0
4079,2,53,185,0,2,3,2,2,2,1,6,6,2,6,1,9,0,8,3,185,0,213,0
4079,3,48,189,0,3,4,3,5,2,4,1,3,2,5,1,7,1,7,0,189,0,206,0
4079,4,47,193,0,5,5,0,6,5,4,3,1,2,3,0,3,5,4,1,193,0,206,0
4079,5,35,198,0,6,2,1,4,3,4,3,2,1,2,2,4,0,1,0,198,0,208,0
4079,6,46,187,1,3,6,3,4,1,7,4,1,3,2,1,4,2,3,1,187,0,209,0
4079,7,44,187,2,3,2,1,3,3,4,2,2,3,6,4,3,1,4,1,187,0,199,0
4079,8,50,188,2,3,4,1,4,0,7,2,4,2,4,4,7,3,3,0,188,0,213,0
4079,9,42,185,1,1,0,3,4,1,2,5,2,2,5,2,5,1,5,3,185,0,209,0
4079,10,38,188,0,5,2,1,5,1,2,2,1,3,0,3,6,1,4,2,188,0,198,0
4079,11,56,184,0,3,8,2,4,3,6,4,2,0,5,1,6,4,3,5,184,0,207,0
4079,12,48,188,1,3,6,1,6,1,4,3,1,1,3,3,6,2,5,2,188,0,208,0
4079,13,45,187,1,1,2,2,4,1,2,3,2,2,5,1,8,5,5,1,187,0,202,0
4079,14,45,187,0,4,3,2,4,4,4,2,3,0,6,0,4,3,5,1,187,0,206,0
4079,15,41,187,0,2,5,3,0,2,2,3,3,3,4,1,5,0,7,1,187,0,207,0
4080,0,45,180,0,5,3,4,5,3,4,1,2,2,1,2,3,4,4,2,180,0,206,0
4080,1,29,194,1,0,3,0,3,0,5,1,1,3,5,2,1,1,2,1,194,0,204,0
4080,2,34,186,0,0,7,1,4,2,4,3,3,1,2,1,2,2,1,1,186,0,196,0
4080,3,42,186,1,3,6,0,5,4,3,0,1,1,2,2,5,1,8,0,186,0,211,0
4080,4,33,189,0,2,4,5,4,1,2,0,2,2,3,2,3,1,2,0,189,0,192,0
4080,5,62,181,1,3,11,2,4,4,4,1,3,2,10,2,6,1,3,5,181,0,218,0
4080,6,36,193,1,2,2,2,4,1,6,0,1,1,3,3,3,1,6,0,193,0,211,0
4080,7,37,187,0,1,2,3,4,2,3,1,2,2,5,4,0,2,5,1,187,0,208,0
4080,8,53,180,2,2,3,2,4,3,6,1,2,3,8,5,5,3,2,2,180,0,213,0
4080,9,42,186,1,4,6,2,5,2,2,1,5,3,1,1,2,1,6,0,186,0,209,0
4080,10,47,182,0,3,4,1,6,4,2,0,1,2,7,4,4,2,4,3,182,0,210,0
4080,11,42,183,0,1,5,4,2,2,5,0,4,2,2,4,4,4,2,1,183,0,205,0
4080,12,39,184,2,5,5,0,0,1,4,1,4,1,6,0,3,2,5,0,184,0,204,0
4080,13,38,181,2,0,3,3,7,1,3,2,2,2,2,3,1,1,5,1,181,0,204,0
4080,14,36,184,0,2,1,0,4,2,3,1,1,1,3,3,7,3,3,2,184,0,204,0
4080,15,32,191,1,1,2,1,3,1,3,0,4,1,3,1,3,1,6,1,191,0,196,0
4081,0,26,175,0,2,2,2,0,1,4,2,0,3,3,2,4,1,0,0,175,0,184,0
4081,1,28,170,2,3,2,2,0,1,3,1,0,5,0,1,2,2,2,2,170,0,179,0
4081,2,16,175,1,1,1,1,2,1,1,0,0,1,2,1,1,2,0,1,175,0,169,0
4081,3,27,173,0,2,4,2,2,4,3,1,1,0,2,1,1,0,4,0,173,0,179,0
4081,4,27,172,0,1,1,1,0,0,4,0,1,2,4,3,4,1,4,1,172,0,182,0
4081,5,28,170,0,0,2,3,3,3,4,0,1,0,3,2,2,1,2,2,170,0,183,0
4081,6,36,166,0,4,2,4,2,1,4,1,1,1,7,2,1,1,3,2,166,0,189,0
4081,7,22,173,0,1,3,0,0,2,3,2,2,0,3,0,1,3,2,0,173,0,180,0
4081,8,25,168,0,4,2,1,0,0,1,0,0,6,3,2,0,1,3,2,168,0,179,0
4081,9,29,171,0,3,3,1,3,1,4,2,0,1,2,2,2,3,2,0,171,0,185,0
4081,10,29,170,1,1,3,1,2,3,3,1,0,2,1,1,2,3,5,0,170,0,182,0
4081,11,29,171,0,1,2,0,4,1,3,1,5,5,3,1,0,1,2,0,171,0,178,0
4081,12,25,174,0,2,1,2,3,0,2,0,0,1,4,2,3,0,5,0,174,0,184,0
4081,13,21,172,2,0,2,3,2,1,2,0,0,0,1,2,2,1,1,2,172,0,172,0
4081,14,25,173,0,0,2,2,0,0,3,1,1,4,4,1,2,1,4,0,173,0,174,0
4081,15,24,171,0,2,5,4,0,3,2,0,2,0,1,0,2,2,1,0,171,0,182,0
4082,0,69,195,4,3,2,4,5,2,6,3,9,2,4,1,7,1,11,5,195,0,247,0
4082,1,43,197,2,4,1,1,4,4,1,1,4,2,5,2,6,4,2,0,197,0,222,0
4082,2,57,193,1,4,4,4,2,2,8,3,1,4,8,1,5,3,4,3,193,0,224,0
4082,3,62,191,6,7,3,1,6,3,6,1,4,6,4,3,4,4,3,1,191,0,234,0
4082,4,72,180,3,3,4,4,0,3,6,4,6,6,8,3,13,2,3,4,180,0,227,0
4082,5,97,178,5,2,13,6,12,3,9,3,2,5,9,7,9,3,8,1,178,0,253,0
4082,6,56,193,2,2,2,5,4,1,5,6,2,2,8,2,6,1,4,4,193,0,222,0
4082,7,52,196,1,2,3,3,6,2,6,2,3,1,4,1,7,6,3,2,196,0,223,0
4082,8,93,179,6,4,13,3,8,2,4,5,8,7,7,3,4,11,5,3,179,0,250,0
4082,9,62,192,1,5,7,3,6,1,7,3,2,5,5,1,6,5,4,1,192,0,226,0
4082,10,62,191,3,4,12,0,2,2,4,2,3,3,4,3,11,3,5,1,191,0,227,0
4082,11,47,195,1,2,6,4,5,2,2,1,2,1,10,1,7,0,1,2,195,0,223,0
4082,12,65,194,6,1,4,4,4,1,8,4,4,7,4,3,7,3,3,2,194,0,224,0
4082,13,51,196,5,3,3,5,2,3,2,2,2,3,5,3,7,0,3,3,196,0,237,0
4082,14,48,197,0,3,7,4,3,2,2,2,2,3,4,3,4,4,3,2,197,0,226,0
4082,15,61,196,1,4,7,2,6,3,4,1,9,6,8,1,1,3,2,3,196,0,242,0
4083,0,62,181,0,2,6,2,4,5,9,0,6,6,5,5,4,2,3,3,181,0,229,0
4083,1,37,194,2,7,4,2,2,0,2,1,5,1,4,0,2,1,4,0,194,0,211,0
4083,2,50,186,0,4,7,1,4,2,5,1,1,5,3,4,5,1,4,3,186,0,222,0
4083,3,38,190,0,1,3,1,4,3,2,1,2,2,4,3,3,3,4,2,190,0,206,0
4083,4,52,185,0,3,5,2,4,2,6,0,3,2,6,4,5,3,4,3,185,0,221,0
4083,5,44,182,0,6,3,4,2,1,4,5,0,3,6,0,5,1,3,1,182,0,202,0
4083,6,51,187,1,1,4,5,3,4,5,1,7,2,3,3,4,3,5,0,187,0,222,0
4083,7,41,188,0,0,2,6,5,5,2,0,2,1,5,1,4,2,3,3,188,0,211,0
4083,8,46,184,1,1,6,5,3,2,4,1,3,6,1,2,1,3,4,3,184,0,211,0
4083,9,35,193,0,1,4,2,1,5,3,1,1,0,2,4,8,0,3,0,193,0,209,0
4083,10,44,189,1,3,4,2,4,2,3,1,1,3,7,3,5,3,0,2,189,0,216,0
4083,11,52,188,1,5,2,4,7,1,4,1,2,4,10,0,5,4,1,1,188,0,220,0
4083,12,39,191,0,3,2,1,5,3,4,2,1,4,3,1,3,1,5,1,191,0,215,0
4083,13,38,191,0,2,8,1,2,1,0,3,1,3,3,1,3,2,6,2,191,0,216,0
4083,14,43,187,0,3,9,4,2,2,3,1,1,3,5,3,3,1,2,1,187,0,203,0
4083,15,53,183,1,1,4,2,3,3,3,4,5,4,6,1,7,3,3,3,183,0,219,0
4084,0,54,179,2,1,5,5,3,3,4,6,5,7,3,1,4,2,1,2,179,0,214,0
4084,1,46,193,2,0,9,1,2,2,6,1,5,2,6,1,2,3,1,3,193,0,221,0
4084,2,42,189,1,0,7,4,4,2,5,0,1,1,6,3,3,2,2,1,189,0,210,0
4084,3,49,183,2,3,2,4,5,2,4,4,3,4,6,1,3,1,5,0,183,0,221,0
4084,4,59,176,2,4,2,5,7,2,6,2,2,4,8,4,3,2,2,4,176,0,217,0
4084,5,44,184,0,3,7,4,7,1,2,2,1,4,0,2,5,3,3,0,184,0,201,0
4084,6,96,164,4,6,5,4,11,9,6,1,7,3,7,6,10,5,11,1,164,0,249,0
4084,7,80,168,3,6,7,2,5,4,7,4,10,2,9,7,6,5,3,0,168,0,230,0
4084,8,44,183,0,2,9,2,3,1,1,1,6,1,8,1,1,1,4,3,183,0,213,0
4084,9,72,171,3,4,7,2,9,4,4,2,7,7,8,2,5,3,5,0,171,0,229,0
4084,10,63,178,2,3,4,3,9,5,4,1,5,3,9,1,6,1,6,1,178,0,220,0
4084,11,41,181,0,1,1,3,4,2,4,3,5,1,8,2,3,1,2,1,181,0,205,0
4084,12,37,187,1,4,3,2,1,0,3,3,4,1,6,2,2,1,3,1,187,0,214,0
4084,13,49,179,7,4,5,1,1,2,2,3,3,7,4,3,5,0,1,1,179,0,208,0
4084,14,100,163,2,9,6,2,12,7,6,0,9,3,9,5,9,5,12,4,163,0,253,0
4084,15,42,182,2,2,3,2,0,2,6,1,6,5,4,1,4,2,1,1,182,0,214,0
4085,0,17,190,0,0,1,2,2,1,0,0,0,1,3,1,2,4,0,0,190,0,194,0
4085,1,33,182,2,4,1,1,2,3,2,0,2,0,4,3,1,4,3,1,182,0,195,0
4085,2,25,181,0,1,1,0,2,2,2,3,4,2,0,0,1,1,2,4,181,0,195,0
4085,3,27,188,0,0,5,0,1,2,2,0,4,2,3,1,4,1,2,0,188,0,194,0
4085,4,33,179,0,3,0,2,1,6,2,2,3,1,4,1,2,0,5,1,179,0,188,0
4085,5,41,180,0,2,6,2,3,2,4,0,2,4,7,1,1,4,3,0,180,0,201,0
4085,6,38,176,0,0,3,1,4,2,0,3,2,2,9,1,1,4,4,2,176,0,192,0
4085,7,40,178,0,2,3,0,4,1,3,3,2,2,3,2,6,1,6,2,178,0,199,0
4085,8,27,188,0,1,1,4,1,0,3,2,4,2,2,2,3,0,2,0,188,0,197,0
4085,9,25,185,0,4,3,1,3,1,1,1,2,1,1,2,0,2,2,1,185,0,192,0
4085,10,38,181,0,4,4,1,2,2,2,1,0,1,3,3,3,4,7,1,181,0,205,0
4085,11,36,184,1,2,6,2,5,5,1,1,1,0,1,0,6,3,1,1,184,0,200,0
4085,12,38,183,0,1,6,3,4,4,3,2,2,2,4,1,2,2,1,1,183,0,204,0
4085,13,44,178,0,5,3,1,3,0,3,3,2,2,5,1,3,6,5,2,178,0,197,0
4085,14,30,186,0,0,2,5,2,3,2,1,0,3,3,0,6,1,1,1,186,0,200,0
4085,15,42,178,0,4,3,3,3,2,3,2,1,2,6,4,2,3,2,2,178,0,206,0
4086,0,35,191,2,3,4,2,5,2,0,0,0,3,7,1,2,0,1,3,191,0,208,0
4086,1,35,189,2,4,0,3,4,3,4,0,2,3,4,1,2,1,1,1,189,0,208,0
4086,2,32,192,1,1,2,0,1,2,3,1,2,2,6,2,6,0,2,1,192,0,206,0
4086,3,38,181,1,2,0,0,6,1,2,5,0,2,4,4,4,1,1,5,181,0,194,0
4086,4,61,181,5,1,3,4,6,2,6,2,9,3,3,0,9,4,2,2,181,0,225,0
4086,5,43,182,0,1,2,2,2,3,3,1,4,6,7,1,7,2,1,1,182,0,210,0
4086,6,28,187,1,1,3,1,4,0,1,1,0,2,2,3,2,1,4,2,187,0,199,0
4086,7,33,185,1,2,2,1,3,3,0,1,2,0,4,1,7,2,1,3,185,0,198,0
4086,8,35,192,2,1,4,1,2,1,2,0,5,4,1,2,3,0,6,1,192,0,214,0
4086,9,43,187,3,2,0,3,5,1,3,1,2,1,3,2,8,4,4,1,187,0,211,0
4086,10,49,184,1,1,6,1,5,2,5,0,7,1,4,2,4,4,3,3,184,0,218,0
4086,11,30,185,0,3,3,1,0,2,2,1,2,3,4,2,1,0,5,1,185,0,201,0
4086,12,42,188,0,2,8,1,4,2,3,1,7,1,2,0,3,2,3,3,188,0,206,0
4086,13,37,187,0,5,3,1,4,2,3,0,4,1,1,1,6,3,3,0,187,0,210,0
4086,14,42,185,1,3,6,0,3,2,7,2,3,1,3,0,4,2,4,1,185,0,205,0
4086,15,31,183,1,2,3,1,1,2,2,2,2,2,3,0,3,2,3,2,183,0,199,0
4087,0,29,176,2,2,1,1,3,1,5,0,1,2,3,1,4,2,1,0,176,0,188,0
4087,1,32,166,0,2,2,1,0,3,5,2,1,1,1,2,3,4,2,3,166,0,186,0
4087,2,19,170,0,4,2,0,2,1,2,1,0,1,3,0,0,0,1,2,170,0,176,0
4087,3,34,169,0,2,5,2,4,0,4,3,0,2,5,0,4,0,3,0,169,0,186,0
4087,4,27,175,0,1,2,2,1,2,1,2,3,1,2,0,4,4,1,1,175,0,181,0
4087,5,19,180,0,1,2,0,1,1,1,2,0,1,3,0,3,2,2,0,180,0,172,0
4087,6,24,171,0,1,3,1,0,1,5,0,0,0,7,1,0,2,3,0,171,0,182,0
4087,7,21,170,1,1,3,0,0,2,0,1,1,1,3,1,1,0,5,1,170,0,175,0
4087,8,30,166,1,4,2,1,4,1,1,4,1,2,2,0,4,1,1,1,166,0,172,0
4087,9,30,172,0,0,4,3,2,2,2,0,0,1,3,0,7,1,5,0,172,0,178,0
4087,10,27,168,1,3,1,0,5,1,2,0,0,2,2,1,3,1,2,3,168,0,176,0
4087,11,35,167,0,2,4,1,3,0,1,0,1,3,7,3,3,3,4,0,167,0,185,0
4087,12,21,175,1,1,1,0,2,1,1,1,2,1,3,1,1,2,2,1,175,0,182,0
4087,13,38,170,0,5,7,1,3,2,2,0,3,0,4,2,4,3,2,0,170,0,188,0
4087,14,29,167,0,2,4,0,0,1,2,4,0,1,4,0,3,2,2,4,167,0,179,0
4087,15,35,168,1,3,7,1,2,2,4,0,2,3,2,1,4,1,0,2,168,0,185,0
4088,0,35,162,1,2,6,3,1,4,0,1,2,4,2,2,2,2,2,1,162,0,177,0
4088,1,30,168,1,1,1,3,3,3,2,1,2,2,3,0,1,2,4,1,168,0,173,0
4088,2,35,166,0,2,2,1,1,3,5,3,6,3,2,1,0,1,2,3,166,0,184,0
4088,3,29,167,0,3,1,2,4,3,1,2,3,3,1,0,3,1,1,1,167,0,185,0
4088,4,31,168,0,1,2,2,1,2,4,0,3,1,2,3,2,3,5,0,168,0,179,0
4088,5,28,166,0,4,2,0,3,4,1,2,2,0,3,0,2,4,1,0,166,0,169,0
4088,6,28,168,1,0,3,1,2,2,3,2,3,1,3,2,3,1,1,0,168,0,175,0
4088,7,24,166,1,1,1,1,2,1,1,0,2,2,4,1,0,3,3,1,166,0,172,0
4088,8,38,166,1,1,1,1,7,2,2,1,6,3,3,1,1,2,2,4,166,0,182,0
4088,9,36,163,0,4,5,2,3,3,3,2,1,2,3,3,2,1,1,1,163,0,179,0
4088,10,26,168,2,0,3,3,0,3,4,0,1,2,2,1,0,2,1,2,168,0,176,0
4088,11,30,163,2,2,2,2,2,3,2,2,0,2,1,2,0,2,4,2,163,0,167,0
4088,12,37,166,1,2,4,2,3,1,1,1,6,2,5,3,2,2,1,1,166,0,174,0
4088,13,22,170,1,1,1,1,2,2,0,4,0,1,3,0,2,1,3,0,170,0,174,0
4088,14,26,171,1,1,0,2,2,1,3,0,4,0,5,0,2,1,2,2,171,0,181,0
4088,15,37,162,1,6,2,1,2,2,4,2,2,0,4,3,3,2,3,0,162,0,173,0
4089,0,33,185,0,3,2,1,4,2,5,3,0,2,2,2,4,0,2,1,185,0,197,0
4089,1,44,172,0,3,1,2,1,2,0,2,2,4,5,4,2,5,7,4,172,0,201,0
4089,2,24,185,1,1,5,1,0,1,1,1,0,1,3,3,2,3,1,0,185,0,190,0
4089,3,21,184,0,0,2,3,0,1,1,1,1,2,3,0,0,2,3,2,184,0,193,0
4089,4,31,185,4,2,1,1,2,5,2,2,1,3,0,3,2,0,3,0,185,0,195,0
4089,5,38,180,0,0,1,3,5,7,3,0,1,1,5,4,2,4,1,1,180,0,199,0
4089,6,24,181,0,1,3,1,7,1,4,1,0,1,4,0,1,0,0,0,181,0,186,0
4089,7,38,174,1,4,7,2,1,1,4,1,1,1,5,1,3,0,5,1,174,0,185,0
4089,8,36,178,1,1,3,1,2,2,3,2,0,5,5,0,0,4,5,2,178,0,192,0
4089,9,44,170,0,5,1,2,3,2,2,2,3,5,4,3,4,3,3,2,170,0,197,0
4089,10,31,172,0,1,1,3,1,1,2,3,1,2,1,3,4,2,4,2,172,0,182,0
4089,11,44,173,0,3,6,3,5,4,4,2,0,2,3,1,6,1,4,0,173,0,201,0
4089,12,48,175,0,5,4,2,5,0,4,0,3,3,4,2,7,3,5,1,175,0,205,0
4089,13,26,182,0,3,3,3,0,1,2,0,1,1,4,0,5,1,2,0,182,0,183,0
4089,14,40,175,1,5,3,2,3,2,4,0,0,4,3,2,4,1,5,1,175,0,189,0
4089,15,25,182,0,1,3,0,1,1,0,0,1,2,8,2,1,3,2,0,182,0,185,0
4090,0,29,184,1,4,2,5,0,2,3,1,4,2,2,1,0,0,1,1,184,0,197,0
4090,1,39,185,4,3,1,3,4,1,2,1,2,2,3,2,3,1,5,2,185,0,198,0
4090,2,40,177,0,3,1,3,2,2,3,5,5,0,2,5,3,3,1,2,177,0,203,0
4090,3,36,179,0,3,5,2,0,2,0,3,2,2,1,5,2,0,5,4,179,0,196,0
4090,4,47,177,1,6,4,3,1,2,2,3,7,1,5,1,2,2,5,2,177,0,203,0
4090,5,37,182,0,3,4,3,3,1,2,1,1,2,7,2,4,2,1,1,182,0,192,0
4090,6,30,185,0,4,3,2,1,1,3,3,1,1,4,2,2,1,2,0,185,0,202,0
4090,7,37,182,2,2,4,4,4,2,1,1,2,4,3,1,1,2,3,1,182,0,192,0
4090,8,23,190,0,0,1,1,1,3,0,1,6,2,2,0,3,2,1,0,190,0,191,0
4090,9,37,183,1,2,2,2,3,2,4,1,3,2,3,1,5,4,1,1,183,0,190,0
4090,10,21,185,3,3,0,1,2,1,2,1,2,1,0,1,1,1,1,1,185,0,192,0
4090,11,23,187,0,3,2,3,2,0,1,0,2,0,3,0,1,0,5,1,187,0,193,0
4090,12,27,188,1,2,1,0,2,2,2,1,3,1,4,3,1,2,2,0,188,0,204,0
4090,13,24,184,0,1,1,2,1,3,2,2,2,0,1,1,2,6,0,0,184,0,181,0
4090,14,27,187,0,2,4,1,0,3,2,0,0,1,2,1,7,2,2,0,187,0,193,0
4090,15,28,180,0,3,3,2,1,2,0,1,0,3,3,1,3,2,2,2,180,0,194,0
4091,0,56,172,1,4,8,2,7,4,5,1,4,2,4,4,2,2,5,1,172,0,211,0
4091,1,35,179,0,2,5,0,3,3,2,0,0,0,6,3,5,2,1,3,179,0,186,0
4091,2,36,179,0,2,4,1,2,3,1,2,4,4,1,0,6,5,0,1,179,0,188,0
4091,3,38,187,0,1,5,1,2,1,1,1,6,0,6,3,3,1,6,1,187,0,203,0
4091,4,28,184,1,2,4,0,3,2,2,2,4,0,2,1,1,2,1,1,184,0,195,0
4091,5,31,184,0,1,3,2,6,0,4,1,1,1,1,0,4,3,3,1,184,0,193,0
4091,6,31,181,0,0,1,0,3,4,3,1,1,2,4,4,6,1,1,0,181,0,186,0
4091,7,46,175,0,1,1,1,3,3,2,2,8,2,7,7,4,0,4,1,175,0,206,0
4091,8,56,175,1,3,5,2,6,3,3,3,4,7,2,2,7,1,3,4,175,0,213,0
4091,9,60,177,1,4,7,3,9,2,4,2,3,2,6,4,3,5,4,1,177,0,224,0
4091,10,41,184,1,6,4,2,7,1,2,3,3,2,1,2,3,3,1,0,184,0,207,0
4091,11,47,182,1,6,7,6,1,3,5,0,3,2,4,0,4,1,2,2,182,0,210,0
4091,12,49,177,0,5,6,1,5,2,2,1,3,3,3,0,2,2,13,1,177,0,209,0
4091,13,41,177,1,7,3,0,6,0,4,2,2,1,3,3,3,1,4,1,177,0,205,0
4091,14,46,180,0,2,5,3,4,2,5,3,3,3,1,0,9,1,2,3,180,0,207,0
4091,15,30,186,0,1,4,1,4,2,2,2,2,2,2,1,5,1,1,0,186,0,199,0
4092,0,44,171,0,5,1,3,7,2,3,1,1,3,4,2,1,6,4,1,171,0,201,0
4092,1,34,179,0,4,5,2,2,3,2,1,3,2,2,2,4,1,1,0,179,0,192,0
4092,2,44,173,1,6,2,1,4,3,5,2,4,3,1,2,4,3,2,1,173,0,189,0
4092,3,33,182,0,2,2,2,3,1,4,0,6,2,2,0,2,4,2,1,182,0,191,0
4092,4,32,177,0,3,1,2,1,2,4,1,4,0,0,2,4,6,2,0,177,0,191,0
4092,5,37,175,0,2,8,1,0,1,3,3,4,4,3,0,0,4,1,3,175,0,188,0
4092,6,35,178,0,3,3,1,4,2,3,1,4,2,0,1,7,2,1,1,178,0,195,0
4092,7,46,176,1,4,6,1,7,2,5,0,3,4,3,1,3,1,3,2,176,0,194,0
4092,8,34,181,0,1,1,3,7,1,1,2,5,1,2,2,2,2,1,3,181,0,196,0
4092,9,50,172,1,2,2,3,5,4,4,1,4,5,6,0,2,6,3,2,172,0,205,0
4092,10,15,187,0,3,1,0,2,2,0,1,1,1,3,1,0,0,0,0,187,0,176,0
4092,11,43,176,0,2,5,0,6,5,5,1,2,4,2,2,3,2,2,2,176,0,206,0
4092,12,26,183,0,2,3,2,2,2,4,0,3,2,0,0,3,0,2,1,183,0,191,0
4092,13,41,177,0,1,6,1,5,3,4,1,4,4,2,0,3,5,2,0,177,0,194,0
4092,14,39,173,0,1,5,3,4,4,3,2,2,2,0,2,5,3,2,1,173,0,196,0
4092,15,33,178,1,0,3,1,1,4,6,1,2,0,3,2,2,4,3,0,178,0,199,0
4093,0,26,185,0,2,1,1,1,0,1,2,1,3,2,2,3,1,4,2,185,0,194,0
4093,1,28,185,2,2,2,1,2,0,1,2,2,5,3,1,3,0,1,1,185,0,189,0
4093,2,36,179,0,1,1,5,1,3,4,2,5,3,5,2,3,0,1,0,179,0,195,0
4093,3,34,181,0,0,3,2,3,2,3,1,1,4,5,1,4,4,1,0,181,0,175,0
4093,4,42,176,1,2,6,0,4,3,3,1,2,2,6,3,5,2,2,0,176,0,204,0
4093,5,35,176,1,3,5,1,0,3,6,0,0,2,5,2,1,2,4,0,176,0,194,0
4093,6,40,176,1,3,3,2,2,1,6,1,3,2,2,4,3,2,4,1,176,0,204,0
4093,7,41,178,4,1,2,1,3,4,5,1,3,3,3,1,4,1,4,1,178,0,197,0
4093,8,32,186,0,3,2,0,2,2,7,0,1,0,5,4,2,2,1,1,186,0,195,0
4093,9,36,181,1,2,2,1,0,4,4,0,3,2,3,0,4,6,2,2,181,0,200,0
4093,10,31,189,0,2,3,1,1,3,4,1,1,1,4,1,4,2,3,0,189,0,190,0
4093,11,41,177,3,5,4,2,1,5,3,3,0,3,2,0,4,2,2,2,177,0,191,0
4093,12,35,181,3,2,0,1,4,3,4,2,3,0,1,0,2,1,4,5,181,0,189,0
4093,13,39,180,3,3,3,1,3,2,3,3,4,2,0,0,2,1,7,2,180,0,196,0
4093,14,47,179,3,5,6,1,6,0,3,3,0,1,3,1,4,2,6,3,179,0,201,0
4093,15,32,177,2,3,1,1,5,1,2,2,1,2,1,2,1,2,2,4,177,0,196,0
4094,0,39,177,0,2,8,0,3,1,3,1,4,5,3,2,2,4,1,0,177,0,203,0
4094,1,27,182,0,1,3,1,4,2,5,0,1,2,2,0,2,2,1,1,182,0,186,0
4094,2,31,179,0,0,1,0,2,1,1,2,0,4,5,4,4,3,3,1,179,0,196,0
4094,3,31,179,0,1,4,2,1,2,3,2,3,2,1,3,5,2,0,0,179,0,190,0
4094,4,31,180,0,3,2,3,3,0,4,0,3,1,3,3,2,2,2,0,180,0,191,0
4094,5,28,177,0,0,1,2,3,4,3,2,2,3,4,1,1,0,0,2,177,0,183,0
4094,6,32,182,0,2,1,1,6,3,2,1,2,3,2,2,4,0,3,0,182,0,190,0
4094,7,29,177,1,1,2,2,0,2,5,3,1,1,3,1,1,4,0,2,177,0,186,0
4094,8,45,179,1,7,3,0,6,1,6,0,2,7,2,2,3,2,3,0,179,0,203,0
4094,9,24,186,0,3,1,1,3,2,4,0,0,3,2,2,2,0,1,0,186,0,188,0
4094,10,33,179,1,3,2,0,0,0,4,3,3,4,5,0,1,0,4,3,179,0,183,0
4094,11,31,178,0,3,3,1,2,1,2,2,1,4,4,0,4,2,1,1,178,0,192,0
4094,12,31,180,0,3,2,1,1,4,2,2,5,2,0,3,4,1,1,0,180,0,187,0
4094,13,26,184,0,3,3,1,2,3,2,1,1,1,3,1,4,0,0,1,184,0,181,0
4094,14,35,175,0,2,5,1,4,3,4,0,1,2,3,3,3,1,3,0,175,0,191,0
4094,15,35,177,0,3,3,1,8,0,5,1,2,1,2,1,2,3,3,0,177,0,188,0
4095,0,22,193,0,3,1,2,3,2,2,0,1,3,2,1,0,0,2,0,193,0,193,0
4095,1,12,199,0,2,1,0,0,0,2,0,0,0,1,0,2,1,1,2,199,0,192,0
4095,2,29,189,2,5,0,1,1,4,2,1,0,2,3,3,2,0,3,0,189,0,194,0
4095,3,36,183,0,2,0,3,2,1,5,2,0,1,6,3,0,7,2,2,183,0,198,0
4095,4,24,193,1,4,1,1,1,2,3,1,1,3,1,1,1,1,1,1,193,0,198,0
4095,5,34,192,3,2,0,0,3,2,0,1,3,4,4,1,2,3,5,1,192,0,205,0
4095,6,16,191,1,4,1,1,1,2,0,1,0,0,1,1,0,0,1,2,191,0,191,0
4095,7,28,188,0,1,1,4,1,1,4,2,1,1,2,3,2,1,4,0,188,0,198,0
4095,8,22,194,2,2,1,0,3,1,5,4,0,0,0,0,1,1,2,0,194,0,194,0
4095,9,21,192,0,0,0,0,1,0,3,1,0,3,5,1,2,3,0,2,192,0,196,0
4095,10,24,191,2,2,2,1,0,3,3,1,0,2,2,2,0,0,3,1,191,0,195,0
4095,11,18,193,0,0,1,0,1,2,3,1,0,3,1,1,0,2,3,0,193,0,192,0
4095,12,29,187,1,0,2,1,1,3,4,2,1,5,2,1,0,1,3,2,187,0,193,0
4095,13,21,194,0,2,1,0,0,1,0,1,0,2,2,0,3,2,7,0,194,0,197,0
4095,14,35,191,1,4,3,2,1,2,5,1,1,2,3,0,5,1,4,0,191,0,208,0
4095,15,22,190,0,4,2,1,0,2,1,1,1,2,1,0,2,1,2,2,190,0,201,0

DRAM Statistics
 CHANNEL 0
 RQ ROW_BUFFER_HIT:    2130870  ROW_BUFFER_MISS:    4520073
 DBUS_CONGESTED:    9488157
 WQ ROW_BUFFER_HIT:     443785  ROW_BUFFER_MISS:    4068630  FULL:          0

 CHANNEL 1
 RQ ROW_BUFFER_HIT:    2127763  ROW_BUFFER_MISS:    4519586
 DBUS_CONGESTED:    9488157
 WQ ROW_BUFFER_HIT:     443361  ROW_BUFFER_MISS:    4067364  FULL:          0

 AVG_CONGESTED_CYCLE: 14
