
*** ChampSim Multicore Out-of-Order Simulator ***

Warmup Instructions: 0
Simulation Instructions: 1000000000
Number of CPUs: 4
LLC sets: 4096
LLC ways: 16
Off-chip DRAM Size: 8192 MB Channels: 2 Width: 64-bit Data Rate: 1600 MT/s

CPU 0 runs /data/behnam/ChampSim/tracer/behnam_trace/cloud9_phase0_core0.trace.gz
CPU 1 runs /data/behnam/ChampSim/tracer/behnam_trace/cloud9_phase0_core1.trace.gz
CPU 2 runs /data/behnam/ChampSim/tracer/behnam_trace/cloud9_phase0_core2.trace.gz
CPU 3 runs /data/behnam/ChampSim/tracer/behnam_trace/cloud9_phase0_core3.trace.gz
CPU 0 Bimodal branch predictor
CPU 1 Bimodal branch predictor
CPU 2 Bimodal branch predictor
CPU 3 Bimodal branch predictor
Initialize pLRU state
here
config wm table state
config cache line state

Warmup complete CPU 0 instructions: 3 cycles: 20 (Simulation time: 0 hr 0 min 0 sec) 
Warmup complete CPU 1 instructions: 3 cycles: 20 (Simulation time: 0 hr 0 min 0 sec) 
Warmup complete CPU 2 instructions: 3 cycles: 20 (Simulation time: 0 hr 0 min 0 sec) 
Warmup complete CPU 3 instructions: 3 cycles: 20 (Simulation time: 0 hr 0 min 0 sec) 

Heartbeat CPU 3 instructions: 10000000 cycles: 78453309 heartbeat IPC: 0.127464 cumulative IPC: 0.127464 (Simulation time: 0 hr 4 min 50 sec) 
Heartbeat CPU 2 instructions: 10000003 cycles: 83353539 heartbeat IPC: 0.119971 cumulative IPC: 0.119971 (Simulation time: 0 hr 5 min 7 sec) 
Heartbeat CPU 0 instructions: 10000002 cycles: 100485872 heartbeat IPC: 0.0995165 cumulative IPC: 0.0995165 (Simulation time: 0 hr 6 min 5 sec) 
Heartbeat CPU 1 instructions: 10000001 cycles: 101030657 heartbeat IPC: 0.0989799 cumulative IPC: 0.0989799 (Simulation time: 0 hr 6 min 7 sec) 
Heartbeat CPU 3 instructions: 20000000 cycles: 156616520 heartbeat IPC: 0.127937 cumulative IPC: 0.1277 (Simulation time: 0 hr 9 min 24 sec) 
Heartbeat CPU 2 instructions: 20000000 cycles: 166303523 heartbeat IPC: 0.120555 cumulative IPC: 0.120262 (Simulation time: 0 hr 10 min 9 sec) 
Heartbeat CPU 1 instructions: 20000000 cycles: 199399843 heartbeat IPC: 0.101658 cumulative IPC: 0.100301 (Simulation time: 0 hr 12 min 31 sec) 
Heartbeat CPU 0 instructions: 20000000 cycles: 201537885 heartbeat IPC: 0.0989589 cumulative IPC: 0.0992369 (Simulation time: 0 hr 12 min 39 sec) 
Heartbeat CPU 3 instructions: 30000000 cycles: 234179267 heartbeat IPC: 0.128928 cumulative IPC: 0.128107 (Simulation time: 0 hr 14 min 43 sec) 
Heartbeat CPU 2 instructions: 30000000 cycles: 249644531 heartbeat IPC: 0.119989 cumulative IPC: 0.120171 (Simulation time: 0 hr 15 min 41 sec) 
Heartbeat CPU 1 instructions: 30000000 cycles: 299140300 heartbeat IPC: 0.10026 cumulative IPC: 0.100287 (Simulation time: 0 hr 18 min 49 sec) 
Heartbeat CPU 0 instructions: 30000001 cycles: 303006559 heartbeat IPC: 0.0985526 cumulative IPC: 0.0990078 (Simulation time: 0 hr 19 min 3 sec) 
Heartbeat CPU 3 instructions: 40000000 cycles: 311791727 heartbeat IPC: 0.128845 cumulative IPC: 0.128291 (Simulation time: 0 hr 19 min 39 sec) 
Heartbeat CPU 2 instructions: 40000000 cycles: 334268599 heartbeat IPC: 0.11817 cumulative IPC: 0.119664 (Simulation time: 0 hr 21 min 22 sec) 
Heartbeat CPU 3 instructions: 50000001 cycles: 389609031 heartbeat IPC: 0.128506 cumulative IPC: 0.128334 (Simulation time: 0 hr 25 min 33 sec) 
Heartbeat CPU 1 instructions: 40000000 cycles: 400258193 heartbeat IPC: 0.0988945 cumulative IPC: 0.0999355 (Simulation time: 0 hr 26 min 18 sec) 
Heartbeat CPU 0 instructions: 40000000 cycles: 403150131 heartbeat IPC: 0.0998566 cumulative IPC: 0.0992186 (Simulation time: 0 hr 26 min 31 sec) 
Heartbeat CPU 2 instructions: 50000000 cycles: 418851227 heartbeat IPC: 0.118228 cumulative IPC: 0.119374 (Simulation time: 0 hr 27 min 35 sec) 
Heartbeat CPU 3 instructions: 60000000 cycles: 467328315 heartbeat IPC: 0.128668 cumulative IPC: 0.128389 (Simulation time: 0 hr 31 min 14 sec) 
Heartbeat CPU 1 instructions: 50000001 cycles: 498206228 heartbeat IPC: 0.102095 cumulative IPC: 0.10036 (Simulation time: 0 hr 33 min 38 sec) 
Heartbeat CPU 2 instructions: 60000000 cycles: 501709757 heartbeat IPC: 0.120688 cumulative IPC: 0.119591 (Simulation time: 0 hr 33 min 55 sec) 
Heartbeat CPU 0 instructions: 50000001 cycles: 503802929 heartbeat IPC: 0.0993514 cumulative IPC: 0.0992452 (Simulation time: 0 hr 34 min 5 sec) 
Heartbeat CPU 3 instructions: 70000002 cycles: 545386771 heartbeat IPC: 0.128109 cumulative IPC: 0.128349 (Simulation time: 0 hr 38 min 4 sec) 
Heartbeat CPU 2 instructions: 70000003 cycles: 583422716 heartbeat IPC: 0.12238 cumulative IPC: 0.119982 (Simulation time: 0 hr 42 min 39 sec) 
Heartbeat CPU 1 instructions: 60000000 cycles: 597941425 heartbeat IPC: 0.100265 cumulative IPC: 0.100344 (Simulation time: 0 hr 44 min 40 sec) 
Heartbeat CPU 0 instructions: 60000000 cycles: 605580679 heartbeat IPC: 0.0982533 cumulative IPC: 0.0990785 (Simulation time: 0 hr 45 min 46 sec) 
Heartbeat CPU 3 instructions: 80000000 cycles: 623578136 heartbeat IPC: 0.127891 cumulative IPC: 0.128292 (Simulation time: 0 hr 48 min 19 sec) 
Heartbeat CPU 2 instructions: 80000000 cycles: 665107667 heartbeat IPC: 0.122422 cumulative IPC: 0.120281 (Simulation time: 0 hr 54 min 27 sec) 
Heartbeat CPU 1 instructions: 70000002 cycles: 698519093 heartbeat IPC: 0.0994257 cumulative IPC: 0.100212 (Simulation time: 0 hr 59 min 15 sec) 
Heartbeat CPU 3 instructions: 90000000 cycles: 701834965 heartbeat IPC: 0.127784 cumulative IPC: 0.128235 (Simulation time: 0 hr 59 min 45 sec) 
Heartbeat CPU 0 instructions: 70000003 cycles: 705632404 heartbeat IPC: 0.0999483 cumulative IPC: 0.0992018 (Simulation time: 1 hr 0 min 19 sec) 
Heartbeat CPU 2 instructions: 90000000 cycles: 746840474 heartbeat IPC: 0.12235 cumulative IPC: 0.120508 (Simulation time: 1 hr 6 min 5 sec) 
*** Reached end of trace for Core: 3 Repeating trace: /data/behnam/ChampSim/tracer/behnam_trace/cloud9_phase0_core3.trace.gz
Heartbeat CPU 3 instructions: 100000000 cycles: 780103281 heartbeat IPC: 0.127766 cumulative IPC: 0.128188 (Simulation time: 1 hr 9 min 12 sec) 
Heartbeat CPU 1 instructions: 80000000 cycles: 797065911 heartbeat IPC: 0.101475 cumulative IPC: 0.100368 (Simulation time: 1 hr 9 min 52 sec) 
Heartbeat CPU 0 instructions: 80000000 cycles: 806240084 heartbeat IPC: 0.099396 cumulative IPC: 0.099226 (Simulation time: 1 hr 10 min 8 sec) 
*** Reached end of trace for Core: 2 Repeating trace: /data/behnam/ChampSim/tracer/behnam_trace/cloud9_phase0_core2.trace.gz
Heartbeat CPU 2 instructions: 100000000 cycles: 828495949 heartbeat IPC: 0.122466 cumulative IPC: 0.120701 (Simulation time: 1 hr 10 min 40 sec) 
Heartbeat CPU 3 instructions: 110000001 cycles: 858757017 heartbeat IPC: 0.12714 cumulative IPC: 0.128092 (Simulation time: 1 hr 11 min 19 sec) 
Heartbeat CPU 1 instructions: 90000001 cycles: 896523245 heartbeat IPC: 0.100546 cumulative IPC: 0.100388 (Simulation time: 1 hr 12 min 7 sec) 
Heartbeat CPU 0 instructions: 90000000 cycles: 908390966 heartbeat IPC: 0.0978944 cumulative IPC: 0.0990763 (Simulation time: 1 hr 12 min 26 sec) 
Heartbeat CPU 2 instructions: 110000003 cycles: 912277254 heartbeat IPC: 0.119358 cumulative IPC: 0.120577 (Simulation time: 1 hr 12 min 31 sec) 
Heartbeat CPU 3 instructions: 120000000 cycles: 937250752 heartbeat IPC: 0.127399 cumulative IPC: 0.128034 (Simulation time: 1 hr 13 min 6 sec) 
Heartbeat CPU 2 instructions: 120000000 cycles: 995408010 heartbeat IPC: 0.120292 cumulative IPC: 0.120554 (Simulation time: 1 hr 14 min 22 sec) 
*** Reached end of trace for Core: 1 Repeating trace: /data/behnam/ChampSim/tracer/behnam_trace/cloud9_phase0_core1.trace.gz
Heartbeat CPU 1 instructions: 100000000 cycles: 997715688 heartbeat IPC: 0.0988216 cumulative IPC: 0.100229 (Simulation time: 1 hr 14 min 25 sec) 
*** Reached end of trace for Core: 0 Repeating trace: /data/behnam/ChampSim/tracer/behnam_trace/cloud9_phase0_core0.trace.gz
Heartbeat CPU 0 instructions: 100000000 cycles: 1008152094 heartbeat IPC: 0.100239 cumulative IPC: 0.0991914 (Simulation time: 1 hr 14 min 46 sec) 
Heartbeat CPU 3 instructions: 130000001 cycles: 1015095572 heartbeat IPC: 0.128461 cumulative IPC: 0.128067 (Simulation time: 1 hr 14 min 58 sec) 
Heartbeat CPU 2 instructions: 130000002 cycles: 1078855831 heartbeat IPC: 0.119835 cumulative IPC: 0.120498 (Simulation time: 1 hr 16 min 29 sec) 
Heartbeat CPU 3 instructions: 140000000 cycles: 1093000748 heartbeat IPC: 0.128361 cumulative IPC: 0.128088 (Simulation time: 1 hr 16 min 47 sec) 
Heartbeat CPU 1 instructions: 110000002 cycles: 1098390060 heartbeat IPC: 0.0993302 cumulative IPC: 0.100147 (Simulation time: 1 hr 16 min 54 sec) 
Heartbeat CPU 0 instructions: 110000002 cycles: 1108353523 heartbeat IPC: 0.099799 cumulative IPC: 0.0992463 (Simulation time: 1 hr 17 min 6 sec) 
Heartbeat CPU 2 instructions: 140000000 cycles: 1163476547 heartbeat IPC: 0.118174 cumulative IPC: 0.120329 (Simulation time: 1 hr 18 min 14 sec) 
Heartbeat CPU 3 instructions: 150000000 cycles: 1170837323 heartbeat IPC: 0.128474 cumulative IPC: 0.128113 (Simulation time: 1 hr 18 min 23 sec) 
Heartbeat CPU 1 instructions: 120000000 cycles: 1196733164 heartbeat IPC: 0.101685 cumulative IPC: 0.100273 (Simulation time: 1 hr 18 min 56 sec) 
Heartbeat CPU 0 instructions: 120000000 cycles: 1209509277 heartbeat IPC: 0.0988574 cumulative IPC: 0.0992138 (Simulation time: 1 hr 19 min 11 sec) 
Heartbeat CPU 2 instructions: 150000001 cycles: 1248060482 heartbeat IPC: 0.118226 cumulative IPC: 0.120186 (Simulation time: 1 hr 19 min 59 sec) 
Heartbeat CPU 3 instructions: 160000000 cycles: 1248574816 heartbeat IPC: 0.128638 cumulative IPC: 0.128146 (Simulation time: 1 hr 20 min 0 sec) 
Heartbeat CPU 1 instructions: 130000001 cycles: 1296425277 heartbeat IPC: 0.100309 cumulative IPC: 0.100276 (Simulation time: 1 hr 20 min 59 sec) 
Heartbeat CPU 0 instructions: 130000003 cycles: 1310962192 heartbeat IPC: 0.0985679 cumulative IPC: 0.0991638 (Simulation time: 1 hr 21 min 17 sec) 
Heartbeat CPU 3 instructions: 170000001 cycles: 1326635042 heartbeat IPC: 0.128106 cumulative IPC: 0.128144 (Simulation time: 1 hr 21 min 37 sec) 
Heartbeat CPU 2 instructions: 160000000 cycles: 1330900284 heartbeat IPC: 0.120715 cumulative IPC: 0.120219 (Simulation time: 1 hr 21 min 42 sec) 
Heartbeat CPU 1 instructions: 140000000 cycles: 1397603331 heartbeat IPC: 0.0988357 cumulative IPC: 0.100171 (Simulation time: 1 hr 23 min 7 sec) 
Heartbeat CPU 3 instructions: 180000000 cycles: 1404841413 heartbeat IPC: 0.127867 cumulative IPC: 0.128128 (Simulation time: 1 hr 23 min 16 sec) 
Heartbeat CPU 0 instructions: 140000000 cycles: 1411065737 heartbeat IPC: 0.0998965 cumulative IPC: 0.0992158 (Simulation time: 1 hr 23 min 23 sec) 
Heartbeat CPU 2 instructions: 170000003 cycles: 1412590488 heartbeat IPC: 0.122414 cumulative IPC: 0.120346 (Simulation time: 1 hr 23 min 25 sec) 
Heartbeat CPU 3 instructions: 190000002 cycles: 1483071247 heartbeat IPC: 0.127828 cumulative IPC: 0.128113 (Simulation time: 1 hr 24 min 52 sec) 
Heartbeat CPU 2 instructions: 180000000 cycles: 1494279648 heartbeat IPC: 0.122415 cumulative IPC: 0.120459 (Simulation time: 1 hr 25 min 6 sec) 
Heartbeat CPU 1 instructions: 150000001 cycles: 1495509030 heartbeat IPC: 0.102139 cumulative IPC: 0.1003 (Simulation time: 1 hr 25 min 7 sec) 
Heartbeat CPU 0 instructions: 150000002 cycles: 1511662151 heartbeat IPC: 0.0994071 cumulative IPC: 0.0992285 (Simulation time: 1 hr 25 min 27 sec) 
*** Reached end of trace for Core: 3 Repeating trace: /data/behnam/ChampSim/tracer/behnam_trace/cloud9_phase0_core3.trace.gz
Heartbeat CPU 3 instructions: 200000000 cycles: 1561315170 heartbeat IPC: 0.127805 cumulative IPC: 0.128097 (Simulation time: 1 hr 26 min 29 sec) 
Heartbeat CPU 2 instructions: 190000000 cycles: 1576023434 heartbeat IPC: 0.122333 cumulative IPC: 0.120557 (Simulation time: 1 hr 26 min 47 sec) 
Heartbeat CPU 1 instructions: 160000000 cycles: 1595289860 heartbeat IPC: 0.10022 cumulative IPC: 0.100295 (Simulation time: 1 hr 27 min 11 sec) 
Heartbeat CPU 0 instructions: 160000000 cycles: 1613503419 heartbeat IPC: 0.098192 cumulative IPC: 0.0991631 (Simulation time: 1 hr 27 min 33 sec) 
Heartbeat CPU 3 instructions: 210000002 cycles: 1640019132 heartbeat IPC: 0.127058 cumulative IPC: 0.128047 (Simulation time: 1 hr 28 min 6 sec) 
*** Reached end of trace for Core: 2 Repeating trace: /data/behnam/ChampSim/tracer/behnam_trace/cloud9_phase0_core2.trace.gz
Heartbeat CPU 2 instructions: 200000000 cycles: 1657670254 heartbeat IPC: 0.122479 cumulative IPC: 0.120651 (Simulation time: 1 hr 28 min 28 sec) 
Heartbeat CPU 1 instructions: 170000002 cycles: 1695802803 heartbeat IPC: 0.0994897 cumulative IPC: 0.100248 (Simulation time: 1 hr 29 min 15 sec) 
Heartbeat CPU 0 instructions: 170000001 cycles: 1713460637 heartbeat IPC: 0.100043 cumulative IPC: 0.0992144 (Simulation time: 1 hr 29 min 36 sec) 
Heartbeat CPU 3 instructions: 220000000 cycles: 1718473744 heartbeat IPC: 0.127462 cumulative IPC: 0.128021 (Simulation time: 1 hr 29 min 42 sec) 
Heartbeat CPU 2 instructions: 210000003 cycles: 1741461553 heartbeat IPC: 0.119344 cumulative IPC: 0.120588 (Simulation time: 1 hr 30 min 11 sec) 
Heartbeat CPU 1 instructions: 180000000 cycles: 1794381072 heartbeat IPC: 0.101442 cumulative IPC: 0.100313 (Simulation time: 1 hr 31 min 16 sec) 
Heartbeat CPU 3 instructions: 230000000 cycles: 1796311773 heartbeat IPC: 0.128472 cumulative IPC: 0.12804 (Simulation time: 1 hr 31 min 18 sec) 
Heartbeat CPU 0 instructions: 180000000 cycles: 1813984885 heartbeat IPC: 0.0994785 cumulative IPC: 0.0992291 (Simulation time: 1 hr 31 min 40 sec) 
Heartbeat CPU 2 instructions: 220000000 cycles: 1824570589 heartbeat IPC: 0.120324 cumulative IPC: 0.120576 (Simulation time: 1 hr 31 min 53 sec) 
Heartbeat CPU 3 instructions: 240000000 cycles: 1874227660 heartbeat IPC: 0.128344 cumulative IPC: 0.128053 (Simulation time: 1 hr 32 min 54 sec) 
Heartbeat CPU 1 instructions: 190000002 cycles: 1893869183 heartbeat IPC: 0.100515 cumulative IPC: 0.100324 (Simulation time: 1 hr 33 min 18 sec) 
Heartbeat CPU 2 instructions: 230000000 cycles: 1908007350 heartbeat IPC: 0.119851 cumulative IPC: 0.120545 (Simulation time: 1 hr 33 min 36 sec) 
Heartbeat CPU 0 instructions: 190000000 cycles: 1916115133 heartbeat IPC: 0.0979142 cumulative IPC: 0.099159 (Simulation time: 1 hr 33 min 46 sec) 
Heartbeat CPU 3 instructions: 250000003 cycles: 1952078513 heartbeat IPC: 0.128451 cumulative IPC: 0.128069 (Simulation time: 1 hr 34 min 30 sec) 
Heartbeat CPU 2 instructions: 240000000 cycles: 1992644807 heartbeat IPC: 0.118151 cumulative IPC: 0.120443 (Simulation time: 1 hr 35 min 20 sec) 
*** Reached end of trace for Core: 1 Repeating trace: /data/behnam/ChampSim/tracer/behnam_trace/cloud9_phase0_core1.trace.gz
Heartbeat CPU 1 instructions: 200000000 cycles: 1995042701 heartbeat IPC: 0.0988401 cumulative IPC: 0.100248 (Simulation time: 1 hr 35 min 23 sec) 
*** Reached end of trace for Core: 0 Repeating trace: /data/behnam/ChampSim/tracer/behnam_trace/cloud9_phase0_core0.trace.gz
Heartbeat CPU 0 instructions: 200000000 cycles: 2015821686 heartbeat IPC: 0.100294 cumulative IPC: 0.0992151 (Simulation time: 1 hr 35 min 48 sec) 
Heartbeat CPU 3 instructions: 260000000 cycles: 2029842446 heartbeat IPC: 0.128594 cumulative IPC: 0.128089 (Simulation time: 1 hr 36 min 6 sec) 
Heartbeat CPU 2 instructions: 250000001 cycles: 2077179106 heartbeat IPC: 0.118295 cumulative IPC: 0.120356 (Simulation time: 1 hr 37 min 4 sec) 
Heartbeat CPU 1 instructions: 210000000 cycles: 2095735383 heartbeat IPC: 0.0993121 cumulative IPC: 0.100203 (Simulation time: 1 hr 37 min 27 sec) 
Heartbeat CPU 3 instructions: 270000000 cycles: 2107883793 heartbeat IPC: 0.128137 cumulative IPC: 0.128091 (Simulation time: 1 hr 37 min 43 sec) 
Heartbeat CPU 0 instructions: 210000003 cycles: 2115950499 heartbeat IPC: 0.0998714 cumulative IPC: 0.0992462 (Simulation time: 1 hr 37 min 53 sec) 
Heartbeat CPU 2 instructions: 260000000 cycles: 2160007833 heartbeat IPC: 0.120731 cumulative IPC: 0.12037 (Simulation time: 1 hr 38 min 48 sec) 
Heartbeat CPU 3 instructions: 280000000 cycles: 2186109166 heartbeat IPC: 0.127836 cumulative IPC: 0.128081 (Simulation time: 1 hr 39 min 20 sec) 
Heartbeat CPU 1 instructions: 220000000 cycles: 2194066668 heartbeat IPC: 0.101697 cumulative IPC: 0.10027 (Simulation time: 1 hr 39 min 30 sec) 
Heartbeat CPU 0 instructions: 220000000 cycles: 2217023877 heartbeat IPC: 0.098938 cumulative IPC: 0.0992321 (Simulation time: 1 hr 39 min 59 sec) 
Heartbeat CPU 2 instructions: 270000001 cycles: 2241619381 heartbeat IPC: 0.122532 cumulative IPC: 0.120449 (Simulation time: 1 hr 40 min 30 sec) 
Heartbeat CPU 3 instructions: 290000001 cycles: 2264337267 heartbeat IPC: 0.127831 cumulative IPC: 0.128073 (Simulation time: 1 hr 40 min 58 sec) 
Heartbeat CPU 1 instructions: 230000001 cycles: 2293728479 heartbeat IPC: 0.100339 cumulative IPC: 0.100273 (Simulation time: 1 hr 41 min 35 sec) 
Heartbeat CPU 0 instructions: 230000000 cycles: 2318471809 heartbeat IPC: 0.0985727 cumulative IPC: 0.0992033 (Simulation time: 1 hr 42 min 6 sec) 
Heartbeat CPU 2 instructions: 280000000 cycles: 2323321074 heartbeat IPC: 0.122396 cumulative IPC: 0.120517 (Simulation time: 1 hr 42 min 12 sec) 
*** Reached end of trace for Core: 3 Repeating trace: /data/behnam/ChampSim/tracer/behnam_trace/cloud9_phase0_core3.trace.gz
Heartbeat CPU 3 instructions: 300000000 cycles: 2342577590 heartbeat IPC: 0.127811 cumulative IPC: 0.128064 (Simulation time: 1 hr 42 min 36 sec) 
Heartbeat CPU 1 instructions: 240000000 cycles: 2394890845 heartbeat IPC: 0.098851 cumulative IPC: 0.100213 (Simulation time: 1 hr 43 min 42 sec) 
Heartbeat CPU 2 instructions: 290000003 cycles: 2405030743 heartbeat IPC: 0.122385 cumulative IPC: 0.120581 (Simulation time: 1 hr 43 min 55 sec) 
Heartbeat CPU 0 instructions: 240000000 cycles: 2418650951 heartbeat IPC: 0.0998212 cumulative IPC: 0.0992289 (Simulation time: 1 hr 44 min 12 sec) 
Heartbeat CPU 3 instructions: 310000001 cycles: 2421288984 heartbeat IPC: 0.127046 cumulative IPC: 0.128031 (Simulation time: 1 hr 44 min 15 sec) 
*** Reached end of trace for Core: 2 Repeating trace: /data/behnam/ChampSim/tracer/behnam_trace/cloud9_phase0_core2.trace.gz
Heartbeat CPU 2 instructions: 300000000 cycles: 2486692425 heartbeat IPC: 0.122456 cumulative IPC: 0.120642 (Simulation time: 1 hr 45 min 36 sec) 
Heartbeat CPU 1 instructions: 250000002 cycles: 2492754835 heartbeat IPC: 0.102183 cumulative IPC: 0.100291 (Simulation time: 1 hr 45 min 44 sec) 
Heartbeat CPU 3 instructions: 320000000 cycles: 2499754246 heartbeat IPC: 0.127445 cumulative IPC: 0.128013 (Simulation time: 1 hr 45 min 53 sec) 
Heartbeat CPU 0 instructions: 250000001 cycles: 2519217808 heartbeat IPC: 0.0994364 cumulative IPC: 0.0992372 (Simulation time: 1 hr 46 min 17 sec) 
Heartbeat CPU 2 instructions: 310000001 cycles: 2570483020 heartbeat IPC: 0.119345 cumulative IPC: 0.1206 (Simulation time: 1 hr 47 min 20 sec) 
Heartbeat CPU 3 instructions: 330000002 cycles: 2577595370 heartbeat IPC: 0.128467 cumulative IPC: 0.128026 (Simulation time: 1 hr 47 min 28 sec) 
Heartbeat CPU 1 instructions: 260000000 cycles: 2592516988 heartbeat IPC: 0.100238 cumulative IPC: 0.100289 (Simulation time: 1 hr 47 min 47 sec) 
Heartbeat CPU 0 instructions: 260000000 cycles: 2621025498 heartbeat IPC: 0.0982244 cumulative IPC: 0.0991978 (Simulation time: 1 hr 48 min 22 sec) 
Heartbeat CPU 2 instructions: 320000000 cycles: 2653596953 heartbeat IPC: 0.120317 cumulative IPC: 0.120591 (Simulation time: 1 hr 49 min 2 sec) 
Heartbeat CPU 3 instructions: 340000000 cycles: 2655474101 heartbeat IPC: 0.128405 cumulative IPC: 0.128037 (Simulation time: 1 hr 49 min 4 sec) 
Heartbeat CPU 1 instructions: 270000001 cycles: 2693008400 heartbeat IPC: 0.099511 cumulative IPC: 0.10026 (Simulation time: 1 hr 49 min 50 sec) 
Heartbeat CPU 0 instructions: 270000001 cycles: 2721016171 heartbeat IPC: 0.100009 cumulative IPC: 0.0992276 (Simulation time: 1 hr 50 min 24 sec) 
Heartbeat CPU 3 instructions: 350000002 cycles: 2733314533 heartbeat IPC: 0.128468 cumulative IPC: 0.12805 (Simulation time: 1 hr 50 min 39 sec) 
Heartbeat CPU 2 instructions: 330000001 cycles: 2737049945 heartbeat IPC: 0.119828 cumulative IPC: 0.120568 (Simulation time: 1 hr 50 min 44 sec) 
Heartbeat CPU 1 instructions: 280000000 cycles: 2791547224 heartbeat IPC: 0.101483 cumulative IPC: 0.100303 (Simulation time: 1 hr 51 min 52 sec) 
Heartbeat CPU 3 instructions: 360000000 cycles: 2811068394 heartbeat IPC: 0.128611 cumulative IPC: 0.128065 (Simulation time: 1 hr 52 min 16 sec) 
Heartbeat CPU 0 instructions: 280000000 cycles: 2821562009 heartbeat IPC: 0.0994571 cumulative IPC: 0.0992358 (Simulation time: 1 hr 52 min 29 sec) 
Heartbeat CPU 2 instructions: 340000000 cycles: 2821664928 heartbeat IPC: 0.118182 cumulative IPC: 0.120496 (Simulation time: 1 hr 52 min 29 sec) 
Heartbeat CPU 3 instructions: 370000003 cycles: 2889083665 heartbeat IPC: 0.12818 cumulative IPC: 0.128068 (Simulation time: 1 hr 53 min 53 sec) 
Heartbeat CPU 1 instructions: 290000002 cycles: 2891014694 heartbeat IPC: 0.100535 cumulative IPC: 0.100311 (Simulation time: 1 hr 53 min 55 sec) 
Heartbeat CPU 2 instructions: 350000000 cycles: 2906238629 heartbeat IPC: 0.11824 cumulative IPC: 0.120431 (Simulation time: 1 hr 54 min 14 sec) 
Heartbeat CPU 0 instructions: 290000000 cycles: 2923662673 heartbeat IPC: 0.0979426 cumulative IPC: 0.0991907 (Simulation time: 1 hr 54 min 35 sec) 
Heartbeat CPU 3 instructions: 380000000 cycles: 2967309148 heartbeat IPC: 0.127836 cumulative IPC: 0.128062 (Simulation time: 1 hr 55 min 29 sec) 
Heartbeat CPU 2 instructions: 360000000 cycles: 2989102012 heartbeat IPC: 0.120681 cumulative IPC: 0.120438 (Simulation time: 1 hr 55 min 56 sec) 
*** Reached end of trace for Core: 1 Repeating trace: /data/behnam/ChampSim/tracer/behnam_trace/cloud9_phase0_core1.trace.gz
Heartbeat CPU 1 instructions: 300000000 cycles: 2992218058 heartbeat IPC: 0.0988109 cumulative IPC: 0.10026 (Simulation time: 1 hr 56 min 0 sec) 
*** Reached end of trace for Core: 0 Repeating trace: /data/behnam/ChampSim/tracer/behnam_trace/cloud9_phase0_core0.trace.gz
Heartbeat CPU 0 instructions: 300000000 cycles: 3023385391 heartbeat IPC: 0.100278 cumulative IPC: 0.0992265 (Simulation time: 1 hr 56 min 38 sec) 
Heartbeat CPU 3 instructions: 390000000 cycles: 3045559892 heartbeat IPC: 0.127794 cumulative IPC: 0.128055 (Simulation time: 1 hr 57 min 6 sec) 
Heartbeat CPU 2 instructions: 370000003 cycles: 3070761279 heartbeat IPC: 0.12246 cumulative IPC: 0.120491 (Simulation time: 1 hr 57 min 37 sec) 
Heartbeat CPU 1 instructions: 310000001 cycles: 3092901690 heartbeat IPC: 0.099321 cumulative IPC: 0.10023 (Simulation time: 1 hr 58 min 5 sec) 
Heartbeat CPU 0 instructions: 310000002 cycles: 3123488735 heartbeat IPC: 0.0998968 cumulative IPC: 0.099248 (Simulation time: 1 hr 58 min 44 sec) 
*** Reached end of trace for Core: 3 Repeating trace: /data/behnam/ChampSim/tracer/behnam_trace/cloud9_phase0_core3.trace.gz
Heartbeat CPU 3 instructions: 400000000 cycles: 3123823168 heartbeat IPC: 0.127774 cumulative IPC: 0.128048 (Simulation time: 1 hr 58 min 44 sec) 
Heartbeat CPU 2 instructions: 380000000 cycles: 3152448412 heartbeat IPC: 0.122418 cumulative IPC: 0.120541 (Simulation time: 1 hr 59 min 20 sec) 
Heartbeat CPU 1 instructions: 320000000 cycles: 3191228333 heartbeat IPC: 0.101702 cumulative IPC: 0.100275 (Simulation time: 2 hr 0 min 7 sec) 
Heartbeat CPU 3 instructions: 410000000 cycles: 3202512867 heartbeat IPC: 0.127081 cumulative IPC: 0.128024 (Simulation time: 2 hr 0 min 21 sec) 
Heartbeat CPU 0 instructions: 320000000 cycles: 3224566911 heartbeat IPC: 0.0989333 cumulative IPC: 0.0992381 (Simulation time: 2 hr 0 min 48 sec) 
Heartbeat CPU 2 instructions: 390000000 cycles: 3234143333 heartbeat IPC: 0.122407 cumulative IPC: 0.120588 (Simulation time: 2 hr 1 min 0 sec) 
Heartbeat CPU 3 instructions: 420000000 cycles: 3280924998 heartbeat IPC: 0.127531 cumulative IPC: 0.128013 (Simulation time: 2 hr 1 min 58 sec) 
Heartbeat CPU 1 instructions: 330000000 cycles: 3290887109 heartbeat IPC: 0.100342 cumulative IPC: 0.100277 (Simulation time: 2 hr 2 min 11 sec) 
*** Reached end of trace for Core: 2 Repeating trace: /data/behnam/ChampSim/tracer/behnam_trace/cloud9_phase0_core2.trace.gz
Heartbeat CPU 2 instructions: 400000000 cycles: 3315823560 heartbeat IPC: 0.122429 cumulative IPC: 0.120634 (Simulation time: 2 hr 2 min 41 sec) 
Heartbeat CPU 0 instructions: 330000003 cycles: 3326003840 heartbeat IPC: 0.0985835 cumulative IPC: 0.0992182 (Simulation time: 2 hr 2 min 54 sec) 
Heartbeat CPU 3 instructions: 430000002 cycles: 3358768045 heartbeat IPC: 0.128464 cumulative IPC: 0.128023 (Simulation time: 2 hr 3 min 35 sec) 
Heartbeat CPU 1 instructions: 340000000 cycles: 3392061606 heartbeat IPC: 0.0988391 cumulative IPC: 0.100234 (Simulation time: 2 hr 4 min 16 sec) 
Heartbeat CPU 2 instructions: 410000000 cycles: 3399598406 heartbeat IPC: 0.119368 cumulative IPC: 0.120602 (Simulation time: 2 hr 4 min 26 sec) 
Heartbeat CPU 0 instructions: 340000000 cycles: 3426135799 heartbeat IPC: 0.0998682 cumulative IPC: 0.0992372 (Simulation time: 2 hr 4 min 59 sec) 
Heartbeat CPU 3 instructions: 440000000 cycles: 3436648545 heartbeat IPC: 0.128402 cumulative IPC: 0.128032 (Simulation time: 2 hr 5 min 12 sec) 
Heartbeat CPU 2 instructions: 420000000 cycles: 3482719089 heartbeat IPC: 0.120307 cumulative IPC: 0.120595 (Simulation time: 2 hr 6 min 9 sec) 
Heartbeat CPU 1 instructions: 350000002 cycles: 3489943925 heartbeat IPC: 0.102164 cumulative IPC: 0.100288 (Simulation time: 2 hr 6 min 17 sec) 
Heartbeat CPU 3 instructions: 450000001 cycles: 3514491819 heartbeat IPC: 0.128463 cumulative IPC: 0.128041 (Simulation time: 2 hr 6 min 48 sec) 
Heartbeat CPU 0 instructions: 350000003 cycles: 3526705995 heartbeat IPC: 0.0994331 cumulative IPC: 0.0992427 (Simulation time: 2 hr 7 min 3 sec) 
Heartbeat CPU 2 instructions: 430000001 cycles: 3566159544 heartbeat IPC: 0.119846 cumulative IPC: 0.120578 (Simulation time: 2 hr 7 min 52 sec) 
Heartbeat CPU 1 instructions: 360000000 cycles: 3589729252 heartbeat IPC: 0.100215 cumulative IPC: 0.100286 (Simulation time: 2 hr 8 min 21 sec) 
Heartbeat CPU 3 instructions: 460000000 cycles: 3592240229 heartbeat IPC: 0.12862 cumulative IPC: 0.128054 (Simulation time: 2 hr 8 min 24 sec) 
Heartbeat CPU 0 instructions: 360000000 cycles: 3628492307 heartbeat IPC: 0.098245 cumulative IPC: 0.0992148 (Simulation time: 2 hr 9 min 9 sec) 
Heartbeat CPU 2 instructions: 440000000 cycles: 3650783172 heartbeat IPC: 0.11817 cumulative IPC: 0.120522 (Simulation time: 2 hr 9 min 37 sec) 
Heartbeat CPU 3 instructions: 470000002 cycles: 3670255986 heartbeat IPC: 0.128179 cumulative IPC: 0.128056 (Simulation time: 2 hr 10 min 1 sec) 
Heartbeat CPU 1 instructions: 370000000 cycles: 3690253951 heartbeat IPC: 0.099478 cumulative IPC: 0.100264 (Simulation time: 2 hr 10 min 26 sec) 
Heartbeat CPU 0 instructions: 370000003 cycles: 3728527891 heartbeat IPC: 0.0999645 cumulative IPC: 0.0992349 (Simulation time: 2 hr 11 min 13 sec) 
Heartbeat CPU 2 instructions: 450000002 cycles: 3735345256 heartbeat IPC: 0.118256 cumulative IPC: 0.120471 (Simulation time: 2 hr 11 min 21 sec) 
Heartbeat CPU 3 instructions: 480000000 cycles: 3748457627 heartbeat IPC: 0.127875 cumulative IPC: 0.128053 (Simulation time: 2 hr 11 min 38 sec) 
Heartbeat CPU 1 instructions: 380000000 cycles: 3788847856 heartbeat IPC: 0.101426 cumulative IPC: 0.100294 (Simulation time: 2 hr 12 min 28 sec) 
Heartbeat CPU 2 instructions: 460000000 cycles: 3818116622 heartbeat IPC: 0.120815 cumulative IPC: 0.120478 (Simulation time: 2 hr 13 min 4 sec) 
Heartbeat CPU 3 instructions: 490000003 cycles: 3826692159 heartbeat IPC: 0.127821 cumulative IPC: 0.128048 (Simulation time: 2 hr 13 min 15 sec) 
Heartbeat CPU 0 instructions: 380000000 cycles: 3829024482 heartbeat IPC: 0.0995058 cumulative IPC: 0.099242 (Simulation time: 2 hr 13 min 18 sec) 
Heartbeat CPU 1 instructions: 390000002 cycles: 3888310032 heartbeat IPC: 0.100541 cumulative IPC: 0.100301 (Simulation time: 2 hr 14 min 33 sec) 
Heartbeat CPU 2 instructions: 470000001 cycles: 3899779230 heartbeat IPC: 0.122455 cumulative IPC: 0.12052 (Simulation time: 2 hr 14 min 47 sec) 
*** Reached end of trace for Core: 3 Repeating trace: /data/behnam/ChampSim/tracer/behnam_trace/cloud9_phase0_core3.trace.gz
Heartbeat CPU 3 instructions: 500000000 cycles: 3904929516 heartbeat IPC: 0.127816 cumulative IPC: 0.128043 (Simulation time: 2 hr 14 min 53 sec) 
Heartbeat CPU 0 instructions: 390000003 cycles: 3931154149 heartbeat IPC: 0.0979148 cumulative IPC: 0.0992075 (Simulation time: 2 hr 15 min 26 sec) 
Heartbeat CPU 2 instructions: 480000000 cycles: 3981526897 heartbeat IPC: 0.122328 cumulative IPC: 0.120557 (Simulation time: 2 hr 16 min 29 sec) 
Heartbeat CPU 3 instructions: 510000000 cycles: 3983540961 heartbeat IPC: 0.127208 cumulative IPC: 0.128027 (Simulation time: 2 hr 16 min 31 sec) 
*** Reached end of trace for Core: 1 Repeating trace: /data/behnam/ChampSim/tracer/behnam_trace/cloud9_phase0_core1.trace.gz
Heartbeat CPU 1 instructions: 400000000 cycles: 3989480298 heartbeat IPC: 0.0988433 cumulative IPC: 0.100264 (Simulation time: 2 hr 16 min 38 sec) 
*** Reached end of trace for Core: 0 Repeating trace: /data/behnam/ChampSim/tracer/behnam_trace/cloud9_phase0_core0.trace.gz
Heartbeat CPU 0 instructions: 400000000 cycles: 4030849175 heartbeat IPC: 0.100306 cumulative IPC: 0.0992347 (Simulation time: 2 hr 17 min 30 sec) 
Heartbeat CPU 3 instructions: 520000000 cycles: 4061864093 heartbeat IPC: 0.127676 cumulative IPC: 0.12802 (Simulation time: 2 hr 18 min 9 sec) 
Heartbeat CPU 2 instructions: 490000001 cycles: 4063248943 heartbeat IPC: 0.122366 cumulative IPC: 0.120593 (Simulation time: 2 hr 18 min 10 sec) 
Heartbeat CPU 1 instructions: 410000003 cycles: 4090177120 heartbeat IPC: 0.099308 cumulative IPC: 0.10024 (Simulation time: 2 hr 18 min 44 sec) 
Heartbeat CPU 0 instructions: 410000000 cycles: 4130983789 heartbeat IPC: 0.0998656 cumulative IPC: 0.09925 (Simulation time: 2 hr 19 min 34 sec) 
Heartbeat CPU 3 instructions: 530000001 cycles: 4139739479 heartbeat IPC: 0.12841 cumulative IPC: 0.128027 (Simulation time: 2 hr 19 min 45 sec) 
*** Reached end of trace for Core: 2 Repeating trace: /data/behnam/ChampSim/tracer/behnam_trace/cloud9_phase0_core2.trace.gz
Heartbeat CPU 2 instructions: 500000000 cycles: 4144921133 heartbeat IPC: 0.122441 cumulative IPC: 0.12063 (Simulation time: 2 hr 19 min 51 sec) 
Heartbeat CPU 1 instructions: 420000000 cycles: 4188495568 heartbeat IPC: 0.10171 cumulative IPC: 0.100275 (Simulation time: 2 hr 20 min 44 sec) 
Heartbeat CPU 3 instructions: 540000000 cycles: 4217570775 heartbeat IPC: 0.128483 cumulative IPC: 0.128036 (Simulation time: 2 hr 21 min 20 sec) 
Heartbeat CPU 2 instructions: 510000003 cycles: 4228671161 heartbeat IPC: 0.119403 cumulative IPC: 0.120605 (Simulation time: 2 hr 21 min 33 sec) 
Heartbeat CPU 0 instructions: 420000000 cycles: 4232052382 heartbeat IPC: 0.0989427 cumulative IPC: 0.0992426 (Simulation time: 2 hr 21 min 38 sec) 
Heartbeat CPU 1 instructions: 430000001 cycles: 4288201577 heartbeat IPC: 0.100295 cumulative IPC: 0.100275 (Simulation time: 2 hr 22 min 47 sec) 
Heartbeat CPU 3 instructions: 550000003 cycles: 4295398768 heartbeat IPC: 0.128489 cumulative IPC: 0.128044 (Simulation time: 2 hr 22 min 55 sec) 
Heartbeat CPU 2 instructions: 520000000 cycles: 4311770308 heartbeat IPC: 0.120338 cumulative IPC: 0.1206 (Simulation time: 2 hr 23 min 15 sec) 
Heartbeat CPU 0 instructions: 430000000 cycles: 4333486987 heartbeat IPC: 0.0985857 cumulative IPC: 0.0992272 (Simulation time: 2 hr 23 min 42 sec) 
Heartbeat CPU 3 instructions: 560000000 cycles: 4373128111 heartbeat IPC: 0.128651 cumulative IPC: 0.128055 (Simulation time: 2 hr 24 min 31 sec) 
Heartbeat CPU 1 instructions: 440000000 cycles: 4389421420 heartbeat IPC: 0.0987948 cumulative IPC: 0.100241 (Simulation time: 2 hr 24 min 51 sec) 
Heartbeat CPU 2 instructions: 530000002 cycles: 4395221954 heartbeat IPC: 0.11983 cumulative IPC: 0.120585 (Simulation time: 2 hr 24 min 58 sec) 
Heartbeat CPU 0 instructions: 440000000 cycles: 4433591307 heartbeat IPC: 0.0998958 cumulative IPC: 0.0992423 (Simulation time: 2 hr 25 min 44 sec) 
Heartbeat CPU 3 instructions: 570000003 cycles: 4451096138 heartbeat IPC: 0.128258 cumulative IPC: 0.128058 (Simulation time: 2 hr 26 min 6 sec) 
Heartbeat CPU 2 instructions: 540000000 cycles: 4479835579 heartbeat IPC: 0.118184 cumulative IPC: 0.12054 (Simulation time: 2 hr 26 min 41 sec) 
Heartbeat CPU 1 instructions: 450000001 cycles: 4487278989 heartbeat IPC: 0.102189 cumulative IPC: 0.100283 (Simulation time: 2 hr 26 min 50 sec) 
Heartbeat CPU 3 instructions: 580000000 cycles: 4529301829 heartbeat IPC: 0.127868 cumulative IPC: 0.128055 (Simulation time: 2 hr 27 min 41 sec) 
Heartbeat CPU 0 instructions: 450000002 cycles: 4534173761 heartbeat IPC: 0.0994209 cumulative IPC: 0.0992463 (Simulation time: 2 hr 27 min 47 sec) 
Heartbeat CPU 2 instructions: 550000003 cycles: 4564404763 heartbeat IPC: 0.118246 cumulative IPC: 0.120498 (Simulation time: 2 hr 28 min 24 sec) 
Heartbeat CPU 1 instructions: 460000000 cycles: 4587034665 heartbeat IPC: 0.100245 cumulative IPC: 0.100283 (Simulation time: 2 hr 28 min 52 sec) 
Heartbeat CPU 3 instructions: 590000001 cycles: 4607560100 heartbeat IPC: 0.127782 cumulative IPC: 0.12805 (Simulation time: 2 hr 29 min 17 sec) 
Heartbeat CPU 0 instructions: 460000000 cycles: 4635976231 heartbeat IPC: 0.0982294 cumulative IPC: 0.099224 (Simulation time: 2 hr 29 min 52 sec) 
Heartbeat CPU 2 instructions: 560000000 cycles: 4647198148 heartbeat IPC: 0.120783 cumulative IPC: 0.120503 (Simulation time: 2 hr 30 min 6 sec) 
*** Reached end of trace for Core: 3 Repeating trace: /data/behnam/ChampSim/tracer/behnam_trace/cloud9_phase0_core3.trace.gz
Heartbeat CPU 3 instructions: 600000000 cycles: 4685838625 heartbeat IPC: 0.127749 cumulative IPC: 0.128045 (Simulation time: 2 hr 30 min 54 sec) 
Heartbeat CPU 1 instructions: 470000002 cycles: 4687580736 heartbeat IPC: 0.0994569 cumulative IPC: 0.100265 (Simulation time: 2 hr 30 min 56 sec) 
Heartbeat CPU 2 instructions: 570000001 cycles: 4728913993 heartbeat IPC: 0.122375 cumulative IPC: 0.120535 (Simulation time: 2 hr 31 min 47 sec) 
Heartbeat CPU 0 instructions: 470000001 cycles: 4735957351 heartbeat IPC: 0.100019 cumulative IPC: 0.0992408 (Simulation time: 2 hr 31 min 56 sec) 
Heartbeat CPU 3 instructions: 610000000 cycles: 4764443488 heartbeat IPC: 0.127219 cumulative IPC: 0.128032 (Simulation time: 2 hr 32 min 32 sec) 
Heartbeat CPU 1 instructions: 480000000 cycles: 4786144637 heartbeat IPC: 0.101457 cumulative IPC: 0.100289 (Simulation time: 2 hr 32 min 59 sec) 
Heartbeat CPU 2 instructions: 580000000 cycles: 4810588788 heartbeat IPC: 0.122437 cumulative IPC: 0.120567 (Simulation time: 2 hr 33 min 29 sec) 
Heartbeat CPU 0 instructions: 480000000 cycles: 4836484081 heartbeat IPC: 0.099476 cumulative IPC: 0.0992456 (Simulation time: 2 hr 34 min 2 sec) 
Heartbeat CPU 3 instructions: 620000000 cycles: 4842859186 heartbeat IPC: 0.127525 cumulative IPC: 0.128024 (Simulation time: 2 hr 34 min 10 sec) 
Heartbeat CPU 1 instructions: 490000000 cycles: 4885676344 heartbeat IPC: 0.10047 cumulative IPC: 0.100293 (Simulation time: 2 hr 35 min 3 sec) 
Heartbeat CPU 2 instructions: 590000002 cycles: 4892343752 heartbeat IPC: 0.122317 cumulative IPC: 0.120597 (Simulation time: 2 hr 35 min 12 sec) 
Heartbeat CPU 3 instructions: 630000001 cycles: 4920736938 heartbeat IPC: 0.128406 cumulative IPC: 0.12803 (Simulation time: 2 hr 35 min 47 sec) 
Heartbeat CPU 0 instructions: 490000001 cycles: 4938626853 heartbeat IPC: 0.0979022 cumulative IPC: 0.0992179 (Simulation time: 2 hr 36 min 10 sec) 
*** Reached end of trace for Core: 2 Repeating trace: /data/behnam/ChampSim/tracer/behnam_trace/cloud9_phase0_core2.trace.gz
Heartbeat CPU 2 instructions: 600000000 cycles: 4974024087 heartbeat IPC: 0.122428 cumulative IPC: 0.120627 (Simulation time: 2 hr 36 min 54 sec) 
*** Reached end of trace for Core: 1 Repeating trace: /data/behnam/ChampSim/tracer/behnam_trace/cloud9_phase0_core1.trace.gz
Heartbeat CPU 1 instructions: 500000000 cycles: 4986878166 heartbeat IPC: 0.0988125 cumulative IPC: 0.100263 (Simulation time: 2 hr 37 min 10 sec) 
Heartbeat CPU 3 instructions: 640000000 cycles: 4998574198 heartbeat IPC: 0.128473 cumulative IPC: 0.128037 (Simulation time: 2 hr 37 min 24 sec) 
*** Reached end of trace for Core: 0 Repeating trace: /data/behnam/ChampSim/tracer/behnam_trace/cloud9_phase0_core0.trace.gz
Heartbeat CPU 0 instructions: 500000000 cycles: 5038301057 heartbeat IPC: 0.100327 cumulative IPC: 0.0992398 (Simulation time: 2 hr 38 min 13 sec) 
Heartbeat CPU 2 instructions: 610000001 cycles: 5057813725 heartbeat IPC: 0.119347 cumulative IPC: 0.120605 (Simulation time: 2 hr 38 min 37 sec) 
Heartbeat CPU 3 instructions: 650000003 cycles: 5076412926 heartbeat IPC: 0.128471 cumulative IPC: 0.128043 (Simulation time: 2 hr 39 min 0 sec) 
Heartbeat CPU 1 instructions: 510000002 cycles: 5087579609 heartbeat IPC: 0.0993035 cumulative IPC: 0.100244 (Simulation time: 2 hr 39 min 14 sec) 
Heartbeat CPU 0 instructions: 510000002 cycles: 5138440583 heartbeat IPC: 0.0998607 cumulative IPC: 0.0992519 (Simulation time: 2 hr 40 min 18 sec) 
Heartbeat CPU 2 instructions: 620000000 cycles: 5140932640 heartbeat IPC: 0.12031 cumulative IPC: 0.120601 (Simulation time: 2 hr 40 min 21 sec) 
Heartbeat CPU 3 instructions: 660000000 cycles: 5154134808 heartbeat IPC: 0.128664 cumulative IPC: 0.128053 (Simulation time: 2 hr 40 min 37 sec) 
Heartbeat CPU 1 instructions: 520000000 cycles: 5185906203 heartbeat IPC: 0.101702 cumulative IPC: 0.100272 (Simulation time: 2 hr 41 min 16 sec) 
Heartbeat CPU 2 instructions: 630000001 cycles: 5224368095 heartbeat IPC: 0.119853 cumulative IPC: 0.120589 (Simulation time: 2 hr 42 min 4 sec) 
Heartbeat CPU 3 instructions: 670000001 cycles: 5232136282 heartbeat IPC: 0.128203 cumulative IPC: 0.128055 (Simulation time: 2 hr 42 min 13 sec) 
Heartbeat CPU 0 instructions: 520000000 cycles: 5239511790 heartbeat IPC: 0.0989401 cumulative IPC: 0.0992459 (Simulation time: 2 hr 42 min 22 sec) 
Heartbeat CPU 1 instructions: 530000003 cycles: 5285657861 heartbeat IPC: 0.100249 cumulative IPC: 0.100271 (Simulation time: 2 hr 43 min 19 sec) 
Heartbeat CPU 2 instructions: 640000000 cycles: 5308997946 heartbeat IPC: 0.118162 cumulative IPC: 0.12055 (Simulation time: 2 hr 43 min 47 sec) 
Heartbeat CPU 3 instructions: 680000000 cycles: 5310318703 heartbeat IPC: 0.127906 cumulative IPC: 0.128053 (Simulation time: 2 hr 43 min 49 sec) 
Heartbeat CPU 0 instructions: 530000000 cycles: 5340967053 heartbeat IPC: 0.0985656 cumulative IPC: 0.099233 (Simulation time: 2 hr 44 min 26 sec) 
Heartbeat CPU 1 instructions: 540000000 cycles: 5386788038 heartbeat IPC: 0.0988824 cumulative IPC: 0.100245 (Simulation time: 2 hr 45 min 22 sec) 
Heartbeat CPU 3 instructions: 690000001 cycles: 5388539903 heartbeat IPC: 0.127843 cumulative IPC: 0.12805 (Simulation time: 2 hr 45 min 25 sec) 
Heartbeat CPU 2 instructions: 650000001 cycles: 5393548786 heartbeat IPC: 0.118272 cumulative IPC: 0.120514 (Simulation time: 2 hr 45 min 31 sec) 
Heartbeat CPU 0 instructions: 540000000 cycles: 5441103495 heartbeat IPC: 0.0998637 cumulative IPC: 0.0992446 (Simulation time: 2 hr 46 min 29 sec) 
*** Reached end of trace for Core: 3 Repeating trace: /data/behnam/ChampSim/tracer/behnam_trace/cloud9_phase0_core3.trace.gz
Heartbeat CPU 3 instructions: 700000000 cycles: 5466790458 heartbeat IPC: 0.127795 cumulative IPC: 0.128046 (Simulation time: 2 hr 47 min 1 sec) 
Heartbeat CPU 2 instructions: 660000000 cycles: 5476321412 heartbeat IPC: 0.120813 cumulative IPC: 0.120519 (Simulation time: 2 hr 47 min 13 sec) 
Heartbeat CPU 1 instructions: 550000000 cycles: 5484647878 heartbeat IPC: 0.102187 cumulative IPC: 0.10028 (Simulation time: 2 hr 47 min 23 sec) 
Heartbeat CPU 0 instructions: 550000002 cycles: 5541730715 heartbeat IPC: 0.0993767 cumulative IPC: 0.099247 (Simulation time: 2 hr 48 min 34 sec) 
Heartbeat CPU 3 instructions: 710000000 cycles: 5545422421 heartbeat IPC: 0.127175 cumulative IPC: 0.128034 (Simulation time: 2 hr 48 min 39 sec) 
Heartbeat CPU 2 instructions: 670000002 cycles: 5558012696 heartbeat IPC: 0.122412 cumulative IPC: 0.120547 (Simulation time: 2 hr 48 min 54 sec) 
Heartbeat CPU 1 instructions: 560000000 cycles: 5584489070 heartbeat IPC: 0.100159 cumulative IPC: 0.100278 (Simulation time: 2 hr 49 min 27 sec) 
Heartbeat CPU 3 instructions: 720000000 cycles: 5623844172 heartbeat IPC: 0.127516 cumulative IPC: 0.128026 (Simulation time: 2 hr 50 min 16 sec) 
Heartbeat CPU 2 instructions: 680000000 cycles: 5639728234 heartbeat IPC: 0.122376 cumulative IPC: 0.120573 (Simulation time: 2 hr 50 min 36 sec) 
Heartbeat CPU 0 instructions: 560000000 cycles: 5643487158 heartbeat IPC: 0.0982739 cumulative IPC: 0.0992294 (Simulation time: 2 hr 50 min 41 sec) 
Heartbeat CPU 1 instructions: 570000001 cycles: 5685062305 heartbeat IPC: 0.09943 cumulative IPC: 0.100263 (Simulation time: 2 hr 51 min 33 sec) 
Heartbeat CPU 3 instructions: 730000000 cycles: 5701715657 heartbeat IPC: 0.128417 cumulative IPC: 0.128032 (Simulation time: 2 hr 51 min 54 sec) 
Heartbeat CPU 2 instructions: 690000001 cycles: 5721439463 heartbeat IPC: 0.122382 cumulative IPC: 0.120599 (Simulation time: 2 hr 52 min 19 sec) 
Heartbeat CPU 0 instructions: 570000001 cycles: 5743512503 heartbeat IPC: 0.0999747 cumulative IPC: 0.0992424 (Simulation time: 2 hr 52 min 46 sec) 
Heartbeat CPU 3 instructions: 740000000 cycles: 5779584641 heartbeat IPC: 0.128421 cumulative IPC: 0.128037 (Simulation time: 2 hr 53 min 32 sec) 
Heartbeat CPU 1 instructions: 580000000 cycles: 5783610097 heartbeat IPC: 0.101474 cumulative IPC: 0.100283 (Simulation time: 2 hr 53 min 37 sec) 
*** Reached end of trace for Core: 2 Repeating trace: /data/behnam/ChampSim/tracer/behnam_trace/cloud9_phase0_core2.trace.gz
Heartbeat CPU 2 instructions: 700000000 cycles: 5803076866 heartbeat IPC: 0.122493 cumulative IPC: 0.120626 (Simulation time: 2 hr 54 min 1 sec) 
Heartbeat CPU 0 instructions: 580000000 cycles: 5844086467 heartbeat IPC: 0.0994293 cumulative IPC: 0.0992456 (Simulation time: 2 hr 54 min 52 sec) 
Heartbeat CPU 3 instructions: 750000001 cycles: 5857418981 heartbeat IPC: 0.128478 cumulative IPC: 0.128043 (Simulation time: 2 hr 55 min 8 sec) 
Heartbeat CPU 1 instructions: 590000001 cycles: 5883145737 heartbeat IPC: 0.100467 cumulative IPC: 0.100286 (Simulation time: 2 hr 55 min 40 sec) 
Heartbeat CPU 2 instructions: 710000000 cycles: 5886857506 heartbeat IPC: 0.119359 cumulative IPC: 0.120608 (Simulation time: 2 hr 55 min 45 sec) 
Heartbeat CPU 3 instructions: 760000000 cycles: 5935181140 heartbeat IPC: 0.128597 cumulative IPC: 0.12805 (Simulation time: 2 hr 56 min 44 sec) 
Heartbeat CPU 0 instructions: 590000001 cycles: 5946209696 heartbeat IPC: 0.0979209 cumulative IPC: 0.0992229 (Simulation time: 2 hr 56 min 58 sec) 
Heartbeat CPU 2 instructions: 720000000 cycles: 5969984580 heartbeat IPC: 0.120298 cumulative IPC: 0.120603 (Simulation time: 2 hr 57 min 28 sec) 
*** Reached end of trace for Core: 1 Repeating trace: /data/behnam/ChampSim/tracer/behnam_trace/cloud9_phase0_core1.trace.gz
Heartbeat CPU 1 instructions: 600000000 cycles: 5984342598 heartbeat IPC: 0.0988173 cumulative IPC: 0.100262 (Simulation time: 2 hr 57 min 46 sec) 
Heartbeat CPU 3 instructions: 770000002 cycles: 6013211421 heartbeat IPC: 0.128155 cumulative IPC: 0.128051 (Simulation time: 2 hr 58 min 21 sec) 
*** Reached end of trace for Core: 0 Repeating trace: /data/behnam/ChampSim/tracer/behnam_trace/cloud9_phase0_core0.trace.gz
Heartbeat CPU 0 instructions: 600000000 cycles: 6045895936 heartbeat IPC: 0.100315 cumulative IPC: 0.0992409 (Simulation time: 2 hr 59 min 1 sec) 
Heartbeat CPU 2 instructions: 730000001 cycles: 6053431485 heartbeat IPC: 0.119837 cumulative IPC: 0.120593 (Simulation time: 2 hr 59 min 10 sec) 
Heartbeat CPU 1 instructions: 610000002 cycles: 6085023463 heartbeat IPC: 0.0993238 cumulative IPC: 0.100246 (Simulation time: 2 hr 59 min 49 sec) 
Heartbeat CPU 3 instructions: 780000000 cycles: 6091409684 heartbeat IPC: 0.12788 cumulative IPC: 0.128049 (Simulation time: 2 hr 59 min 57 sec) 
Heartbeat CPU 2 instructions: 740000000 cycles: 6138109249 heartbeat IPC: 0.118095 cumulative IPC: 0.120558 (Simulation time: 3 hr 0 min 54 sec) 
Heartbeat CPU 0 instructions: 610000003 cycles: 6146062957 heartbeat IPC: 0.0998333 cumulative IPC: 0.0992505 (Simulation time: 3 hr 1 min 4 sec) 
Heartbeat CPU 3 instructions: 790000003 cycles: 6169626561 heartbeat IPC: 0.12785 cumulative IPC: 0.128047 (Simulation time: 3 hr 1 min 33 sec) 
Heartbeat CPU 1 instructions: 620000000 cycles: 6183348231 heartbeat IPC: 0.101704 cumulative IPC: 0.100269 (Simulation time: 3 hr 1 min 50 sec) 
Heartbeat CPU 2 instructions: 750000001 cycles: 6222641031 heartbeat IPC: 0.118299 cumulative IPC: 0.120528 (Simulation time: 3 hr 2 min 38 sec) 
Heartbeat CPU 0 instructions: 620000000 cycles: 6247174024 heartbeat IPC: 0.0989011 cumulative IPC: 0.0992449 (Simulation time: 3 hr 3 min 8 sec) 
*** Reached end of trace for Core: 3 Repeating trace: /data/behnam/ChampSim/tracer/behnam_trace/cloud9_phase0_core3.trace.gz
Heartbeat CPU 3 instructions: 800000000 cycles: 6247880679 heartbeat IPC: 0.127789 cumulative IPC: 0.128043 (Simulation time: 3 hr 3 min 9 sec) 
Heartbeat CPU 1 instructions: 630000001 cycles: 6283072294 heartbeat IPC: 0.100277 cumulative IPC: 0.100269 (Simulation time: 3 hr 3 min 53 sec) 
Heartbeat CPU 2 instructions: 760000000 cycles: 6305468997 heartbeat IPC: 0.120732 cumulative IPC: 0.12053 (Simulation time: 3 hr 4 min 20 sec) 
Heartbeat CPU 3 instructions: 810000000 cycles: 6326598018 heartbeat IPC: 0.127037 cumulative IPC: 0.128031 (Simulation time: 3 hr 4 min 46 sec) 
Heartbeat CPU 0 instructions: 630000002 cycles: 6348651525 heartbeat IPC: 0.098544 cumulative IPC: 0.0992337 (Simulation time: 3 hr 5 min 13 sec) 
Heartbeat CPU 1 instructions: 640000000 cycles: 6384250178 heartbeat IPC: 0.0988358 cumulative IPC: 0.100247 (Simulation time: 3 hr 5 min 57 sec) 
Heartbeat CPU 2 instructions: 770000003 cycles: 6387082698 heartbeat IPC: 0.122528 cumulative IPC: 0.120556 (Simulation time: 3 hr 6 min 1 sec) 
Heartbeat CPU 3 instructions: 820000000 cycles: 6405077507 heartbeat IPC: 0.127422 cumulative IPC: 0.128023 (Simulation time: 3 hr 6 min 23 sec) 
Heartbeat CPU 0 instructions: 640000000 cycles: 6448780797 heartbeat IPC: 0.0998709 cumulative IPC: 0.0992436 (Simulation time: 3 hr 7 min 17 sec) 
Heartbeat CPU 2 instructions: 780000000 cycles: 6468818118 heartbeat IPC: 0.122346 cumulative IPC: 0.120578 (Simulation time: 3 hr 7 min 41 sec) 
Heartbeat CPU 1 instructions: 650000001 cycles: 6482143322 heartbeat IPC: 0.102152 cumulative IPC: 0.100275 (Simulation time: 3 hr 7 min 58 sec) 
Heartbeat CPU 3 instructions: 830000003 cycles: 6482885895 heartbeat IPC: 0.128521 cumulative IPC: 0.128029 (Simulation time: 3 hr 7 min 59 sec) 
Heartbeat CPU 0 instructions: 650000001 cycles: 6549390767 heartbeat IPC: 0.0993937 cumulative IPC: 0.0992459 (Simulation time: 3 hr 9 min 21 sec) 
Heartbeat CPU 2 instructions: 790000002 cycles: 6550526534 heartbeat IPC: 0.122386 cumulative IPC: 0.120601 (Simulation time: 3 hr 9 min 23 sec) 
Heartbeat CPU 3 instructions: 840000000 cycles: 6560786830 heartbeat IPC: 0.128368 cumulative IPC: 0.128033 (Simulation time: 3 hr 9 min 35 sec) 
Heartbeat CPU 1 instructions: 660000000 cycles: 6581903160 heartbeat IPC: 0.100241 cumulative IPC: 0.100275 (Simulation time: 3 hr 10 min 2 sec) 
*** Reached end of trace for Core: 2 Repeating trace: /data/behnam/ChampSim/tracer/behnam_trace/cloud9_phase0_core2.trace.gz
Heartbeat CPU 2 instructions: 800000000 cycles: 6632210897 heartbeat IPC: 0.122422 cumulative IPC: 0.120623 (Simulation time: 3 hr 11 min 4 sec) 
Heartbeat CPU 3 instructions: 850000000 cycles: 6638615498 heartbeat IPC: 0.128487 cumulative IPC: 0.128039 (Simulation time: 3 hr 11 min 11 sec) 
Heartbeat CPU 0 instructions: 660000000 cycles: 6651176442 heartbeat IPC: 0.0982456 cumulative IPC: 0.0992306 (Simulation time: 3 hr 11 min 26 sec) 
Heartbeat CPU 1 instructions: 670000003 cycles: 6682427036 heartbeat IPC: 0.0994789 cumulative IPC: 0.100263 (Simulation time: 3 hr 12 min 5 sec) 
Heartbeat CPU 2 instructions: 810000002 cycles: 6716044079 heartbeat IPC: 0.119285 cumulative IPC: 0.120607 (Simulation time: 3 hr 12 min 47 sec) 
Heartbeat CPU 3 instructions: 860000000 cycles: 6716436224 heartbeat IPC: 0.1285 cumulative IPC: 0.128044 (Simulation time: 3 hr 12 min 47 sec) 
Heartbeat CPU 0 instructions: 670000000 cycles: 6751163791 heartbeat IPC: 0.100013 cumulative IPC: 0.0992422 (Simulation time: 3 hr 13 min 30 sec) 
Heartbeat CPU 1 instructions: 680000000 cycles: 6780958606 heartbeat IPC: 0.10149 cumulative IPC: 0.100281 (Simulation time: 3 hr 14 min 7 sec) 
Heartbeat CPU 3 instructions: 870000001 cycles: 6794505203 heartbeat IPC: 0.128092 cumulative IPC: 0.128045 (Simulation time: 3 hr 14 min 23 sec) 
Heartbeat CPU 2 instructions: 820000000 cycles: 6799138828 heartbeat IPC: 0.120345 cumulative IPC: 0.120604 (Simulation time: 3 hr 14 min 29 sec) 
Heartbeat CPU 0 instructions: 680000000 cycles: 6851738637 heartbeat IPC: 0.0994284 cumulative IPC: 0.0992449 (Simulation time: 3 hr 15 min 34 sec) 
Heartbeat CPU 3 instructions: 880000000 cycles: 6872744402 heartbeat IPC: 0.127813 cumulative IPC: 0.128042 (Simulation time: 3 hr 16 min 0 sec) 
Heartbeat CPU 1 instructions: 690000000 cycles: 6880500896 heartbeat IPC: 0.10046 cumulative IPC: 0.100283 (Simulation time: 3 hr 16 min 10 sec) 
Heartbeat CPU 2 instructions: 830000000 cycles: 6882625054 heartbeat IPC: 0.11978 cumulative IPC: 0.120594 (Simulation time: 3 hr 16 min 12 sec) 
Heartbeat CPU 3 instructions: 890000002 cycles: 6950899704 heartbeat IPC: 0.12795 cumulative IPC: 0.128041 (Simulation time: 3 hr 17 min 36 sec) 
Heartbeat CPU 0 instructions: 690000001 cycles: 6953864101 heartbeat IPC: 0.0979188 cumulative IPC: 0.0992254 (Simulation time: 3 hr 17 min 40 sec) 
Heartbeat CPU 2 instructions: 840000000 cycles: 6967229871 heartbeat IPC: 0.118197 cumulative IPC: 0.120564 (Simulation time: 3 hr 17 min 56 sec) 
*** Reached end of trace for Core: 1 Repeating trace: /data/behnam/ChampSim/tracer/behnam_trace/cloud9_phase0_core1.trace.gz
Heartbeat CPU 1 instructions: 700000000 cycles: 6981678026 heartbeat IPC: 0.0988366 cumulative IPC: 0.100262 (Simulation time: 3 hr 18 min 14 sec) 
*** Reached end of trace for Core: 3 Repeating trace: /data/behnam/ChampSim/tracer/behnam_trace/cloud9_phase0_core3.trace.gz
Heartbeat CPU 3 instructions: 900000000 cycles: 7029167079 heartbeat IPC: 0.127767 cumulative IPC: 0.128038 (Simulation time: 3 hr 19 min 12 sec) 
Heartbeat CPU 2 instructions: 850000001 cycles: 7051811718 heartbeat IPC: 0.118229 cumulative IPC: 0.120536 (Simulation time: 3 hr 19 min 40 sec) 
*** Reached end of trace for Core: 0 Repeating trace: /data/behnam/ChampSim/tracer/behnam_trace/cloud9_phase0_core0.trace.gz
Heartbeat CPU 0 instructions: 700000000 cycles: 7053568472 heartbeat IPC: 0.100296 cumulative IPC: 0.0992405 (Simulation time: 3 hr 19 min 42 sec) 
Heartbeat CPU 1 instructions: 710000001 cycles: 7082374595 heartbeat IPC: 0.0993083 cumulative IPC: 0.100249 (Simulation time: 3 hr 20 min 17 sec) 
Heartbeat CPU 3 instructions: 910000000 cycles: 7107876731 heartbeat IPC: 0.127049 cumulative IPC: 0.128027 (Simulation time: 3 hr 20 min 49 sec) 
Heartbeat CPU 2 instructions: 860000000 cycles: 7134637430 heartbeat IPC: 0.120735 cumulative IPC: 0.120539 (Simulation time: 3 hr 21 min 22 sec) 
Heartbeat CPU 0 instructions: 710000001 cycles: 7153731641 heartbeat IPC: 0.0998371 cumulative IPC: 0.0992489 (Simulation time: 3 hr 21 min 46 sec) 
Heartbeat CPU 1 instructions: 720000000 cycles: 7180696805 heartbeat IPC: 0.101706 cumulative IPC: 0.100269 (Simulation time: 3 hr 22 min 19 sec) 
Heartbeat CPU 3 instructions: 920000000 cycles: 7186398275 heartbeat IPC: 0.127354 cumulative IPC: 0.12802 (Simulation time: 3 hr 22 min 27 sec) 
Heartbeat CPU 2 instructions: 870000001 cycles: 7216303794 heartbeat IPC: 0.122449 cumulative IPC: 0.12056 (Simulation time: 3 hr 23 min 4 sec) 
Heartbeat CPU 0 instructions: 720000000 cycles: 7254872532 heartbeat IPC: 0.098872 cumulative IPC: 0.0992436 (Simulation time: 3 hr 23 min 52 sec) 
Heartbeat CPU 3 instructions: 930000002 cycles: 7264175814 heartbeat IPC: 0.128572 cumulative IPC: 0.128026 (Simulation time: 3 hr 24 min 4 sec) 
Heartbeat CPU 1 instructions: 730000002 cycles: 7280371635 heartbeat IPC: 0.100326 cumulative IPC: 0.10027 (Simulation time: 3 hr 24 min 23 sec) 
Heartbeat CPU 2 instructions: 880000000 cycles: 7298013430 heartbeat IPC: 0.122385 cumulative IPC: 0.120581 (Simulation time: 3 hr 24 min 45 sec) 
Heartbeat CPU 3 instructions: 940000000 cycles: 7342054965 heartbeat IPC: 0.128404 cumulative IPC: 0.12803 (Simulation time: 3 hr 25 min 40 sec) 
Heartbeat CPU 0 instructions: 730000001 cycles: 7356297985 heartbeat IPC: 0.0985946 cumulative IPC: 0.0992347 (Simulation time: 3 hr 25 min 57 sec) 
Heartbeat CPU 2 instructions: 890000002 cycles: 7379685248 heartbeat IPC: 0.122441 cumulative IPC: 0.120601 (Simulation time: 3 hr 26 min 26 sec) 
Heartbeat CPU 1 instructions: 740000000 cycles: 7381588476 heartbeat IPC: 0.0987978 cumulative IPC: 0.100249 (Simulation time: 3 hr 26 min 28 sec) 
Heartbeat CPU 3 instructions: 950000003 cycles: 7419905897 heartbeat IPC: 0.128451 cumulative IPC: 0.128034 (Simulation time: 3 hr 27 min 16 sec) 
Heartbeat CPU 0 instructions: 740000000 cycles: 7456457551 heartbeat IPC: 0.0998407 cumulative IPC: 0.0992428 (Simulation time: 3 hr 28 min 1 sec) 
*** Reached end of trace for Core: 2 Repeating trace: /data/behnam/ChampSim/tracer/behnam_trace/cloud9_phase0_core2.trace.gz
Heartbeat CPU 2 instructions: 900000000 cycles: 7461357495 heartbeat IPC: 0.122441 cumulative IPC: 0.120621 (Simulation time: 3 hr 28 min 7 sec) 
Heartbeat CPU 1 instructions: 750000001 cycles: 7479460732 heartbeat IPC: 0.102174 cumulative IPC: 0.100275 (Simulation time: 3 hr 28 min 29 sec) 
Heartbeat CPU 3 instructions: 960000000 cycles: 7497677770 heartbeat IPC: 0.128581 cumulative IPC: 0.12804 (Simulation time: 3 hr 28 min 51 sec) 
Heartbeat CPU 2 instructions: 910000002 cycles: 7545149476 heartbeat IPC: 0.119343 cumulative IPC: 0.120607 (Simulation time: 3 hr 29 min 50 sec) 
Heartbeat CPU 0 instructions: 750000002 cycles: 7557019472 heartbeat IPC: 0.0994412 cumulative IPC: 0.0992455 (Simulation time: 3 hr 30 min 4 sec) 
Heartbeat CPU 3 instructions: 970000000 cycles: 7575750841 heartbeat IPC: 0.128085 cumulative IPC: 0.12804 (Simulation time: 3 hr 30 min 27 sec) 
Heartbeat CPU 1 instructions: 760000000 cycles: 7579250525 heartbeat IPC: 0.100211 cumulative IPC: 0.100274 (Simulation time: 3 hr 30 min 31 sec) 
Heartbeat CPU 2 instructions: 920000000 cycles: 7628261351 heartbeat IPC: 0.12032 cumulative IPC: 0.120604 (Simulation time: 3 hr 31 min 31 sec) 
Heartbeat CPU 3 instructions: 980000000 cycles: 7653955950 heartbeat IPC: 0.127869 cumulative IPC: 0.128038 (Simulation time: 3 hr 32 min 3 sec) 
Heartbeat CPU 0 instructions: 760000000 cycles: 7658792266 heartbeat IPC: 0.0982581 cumulative IPC: 0.0992324 (Simulation time: 3 hr 32 min 9 sec) 
Heartbeat CPU 1 instructions: 770000002 cycles: 7679766880 heartbeat IPC: 0.0994863 cumulative IPC: 0.100263 (Simulation time: 3 hr 32 min 35 sec) 
Heartbeat CPU 2 instructions: 930000001 cycles: 7711690512 heartbeat IPC: 0.119862 cumulative IPC: 0.120596 (Simulation time: 3 hr 33 min 14 sec) 
Heartbeat CPU 3 instructions: 990000002 cycles: 7732140294 heartbeat IPC: 0.127903 cumulative IPC: 0.128037 (Simulation time: 3 hr 33 min 39 sec) 
Heartbeat CPU 0 instructions: 770000000 cycles: 7758817739 heartbeat IPC: 0.0999745 cumulative IPC: 0.0992419 (Simulation time: 3 hr 34 min 11 sec) 
Heartbeat CPU 1 instructions: 780000000 cycles: 7778315575 heartbeat IPC: 0.101473 cumulative IPC: 0.100279 (Simulation time: 3 hr 34 min 35 sec) 
Heartbeat CPU 2 instructions: 940000000 cycles: 7796304190 heartbeat IPC: 0.118184 cumulative IPC: 0.12057 (Simulation time: 3 hr 34 min 57 sec) 
*** Reached end of trace for Core: 3 Repeating trace: /data/behnam/ChampSim/tracer/behnam_trace/cloud9_phase0_core3.trace.gz
Heartbeat CPU 3 instructions: 1000000000 cycles: 7810378817 heartbeat IPC: 0.127814 cumulative IPC: 0.128035 (Simulation time: 3 hr 35 min 14 sec) 
Finished CPU 3 instructions: 1000000001 cycles: 7810378814 cumulative IPC: 0.128035 (Simulation time: 3 hr 35 min 14 sec) 
Heartbeat CPU 0 instructions: 780000000 cycles: 7859393476 heartbeat IPC: 0.0994276 cumulative IPC: 0.0992443 (Simulation time: 3 hr 36 min 15 sec) 
Heartbeat CPU 1 instructions: 790000002 cycles: 7877836009 heartbeat IPC: 0.100482 cumulative IPC: 0.100281 (Simulation time: 3 hr 36 min 38 sec) 
Heartbeat CPU 2 instructions: 950000000 cycles: 7880889535 heartbeat IPC: 0.118224 cumulative IPC: 0.120545 (Simulation time: 3 hr 36 min 42 sec) 
Heartbeat CPU 3 instructions: 1010000002 cycles: 7889022258 heartbeat IPC: 0.127156 cumulative IPC: 0.128026 (Simulation time: 3 hr 36 min 52 sec) 
Heartbeat CPU 0 instructions: 790000003 cycles: 7961535435 heartbeat IPC: 0.097903 cumulative IPC: 0.0992271 (Simulation time: 3 hr 38 min 22 sec) 
Heartbeat CPU 2 instructions: 960000000 cycles: 7963671974 heartbeat IPC: 0.120799 cumulative IPC: 0.120547 (Simulation time: 3 hr 38 min 24 sec) 
Heartbeat CPU 3 instructions: 1020000000 cycles: 7967497345 heartbeat IPC: 0.127429 cumulative IPC: 0.12802 (Simulation time: 3 hr 38 min 29 sec) 
*** Reached end of trace for Core: 1 Repeating trace: /data/behnam/ChampSim/tracer/behnam_trace/cloud9_phase0_core1.trace.gz
Heartbeat CPU 1 instructions: 800000000 cycles: 7979038172 heartbeat IPC: 0.0988121 cumulative IPC: 0.100263 (Simulation time: 3 hr 38 min 44 sec) 
Heartbeat CPU 3 instructions: 1030000001 cycles: 8045268841 heartbeat IPC: 0.128582 cumulative IPC: 0.128026 (Simulation time: 3 hr 40 min 7 sec) 
Heartbeat CPU 2 instructions: 970000001 cycles: 8045345106 heartbeat IPC: 0.122439 cumulative IPC: 0.120567 (Simulation time: 3 hr 40 min 7 sec) 
*** Reached end of trace for Core: 0 Repeating trace: /data/behnam/ChampSim/tracer/behnam_trace/cloud9_phase0_core0.trace.gz
Heartbeat CPU 0 instructions: 800000000 cycles: 8061304865 heartbeat IPC: 0.100231 cumulative IPC: 0.0992395 (Simulation time: 3 hr 40 min 27 sec) 
Heartbeat CPU 1 instructions: 810000003 cycles: 8079697486 heartbeat IPC: 0.099345 cumulative IPC: 0.100251 (Simulation time: 3 hr 40 min 50 sec) 
Heartbeat CPU 3 instructions: 1040000000 cycles: 8123167885 heartbeat IPC: 0.128371 cumulative IPC: 0.128029 (Simulation time: 3 hr 41 min 45 sec) 
Heartbeat CPU 2 instructions: 980000000 cycles: 8127086425 heartbeat IPC: 0.122337 cumulative IPC: 0.120584 (Simulation time: 3 hr 41 min 50 sec) 
Heartbeat CPU 0 instructions: 810000002 cycles: 8161484034 heartbeat IPC: 0.0998212 cumulative IPC: 0.0992467 (Simulation time: 3 hr 42 min 33 sec) 
Heartbeat CPU 1 instructions: 820000000 cycles: 8178032969 heartbeat IPC: 0.101693 cumulative IPC: 0.100269 (Simulation time: 3 hr 42 min 54 sec) 
Heartbeat CPU 3 instructions: 1050000002 cycles: 8201018584 heartbeat IPC: 0.128451 cumulative IPC: 0.128033 (Simulation time: 3 hr 43 min 22 sec) 
Heartbeat CPU 2 instructions: 990000001 cycles: 8208795511 heartbeat IPC: 0.122385 cumulative IPC: 0.120602 (Simulation time: 3 hr 43 min 32 sec) 
Heartbeat CPU 0 instructions: 820000000 cycles: 8262666833 heartbeat IPC: 0.098831 cumulative IPC: 0.0992416 (Simulation time: 3 hr 44 min 40 sec) 
Heartbeat CPU 1 instructions: 830000001 cycles: 8277750736 heartbeat IPC: 0.100283 cumulative IPC: 0.100269 (Simulation time: 3 hr 44 min 59 sec) 
Heartbeat CPU 3 instructions: 1060000000 cycles: 8278779651 heartbeat IPC: 0.128599 cumulative IPC: 0.128038 (Simulation time: 3 hr 45 min 0 sec) 
*** Reached end of trace for Core: 2 Repeating trace: /data/behnam/ChampSim/tracer/behnam_trace/cloud9_phase0_core2.trace.gz
Heartbeat CPU 2 instructions: 1000000000 cycles: 8290482690 heartbeat IPC: 0.122418 cumulative IPC: 0.12062 (Simulation time: 3 hr 45 min 15 sec) 
Finished CPU 2 instructions: 1000000002 cycles: 8290482691 cumulative IPC: 0.12062 (Simulation time: 3 hr 45 min 15 sec) 
Heartbeat CPU 3 instructions: 1070000003 cycles: 8356812596 heartbeat IPC: 0.128151 cumulative IPC: 0.128039 (Simulation time: 3 hr 46 min 37 sec) 
Heartbeat CPU 0 instructions: 830000000 cycles: 8364073695 heartbeat IPC: 0.0986127 cumulative IPC: 0.0992339 (Simulation time: 3 hr 46 min 45 sec) 
Heartbeat CPU 2 instructions: 1010000000 cycles: 8374253200 heartbeat IPC: 0.119374 cumulative IPC: 0.120608 (Simulation time: 3 hr 46 min 58 sec) 
Heartbeat CPU 1 instructions: 840000000 cycles: 8378943294 heartbeat IPC: 0.0988215 cumulative IPC: 0.100251 (Simulation time: 3 hr 47 min 4 sec) 
Heartbeat CPU 3 instructions: 1080000000 cycles: 8435020627 heartbeat IPC: 0.127864 cumulative IPC: 0.128038 (Simulation time: 3 hr 48 min 14 sec) 
Heartbeat CPU 2 instructions: 1020000000 cycles: 8457343465 heartbeat IPC: 0.120351 cumulative IPC: 0.120605 (Simulation time: 3 hr 48 min 41 sec) 
Heartbeat CPU 0 instructions: 840000000 cycles: 8464181768 heartbeat IPC: 0.099892 cumulative IPC: 0.0992417 (Simulation time: 3 hr 48 min 50 sec) 
Heartbeat CPU 1 instructions: 850000003 cycles: 8476838429 heartbeat IPC: 0.10215 cumulative IPC: 0.100273 (Simulation time: 3 hr 49 min 5 sec) 
Heartbeat CPU 3 instructions: 1090000001 cycles: 8513181345 heartbeat IPC: 0.127942 cumulative IPC: 0.128037 (Simulation time: 3 hr 49 min 50 sec) 
Heartbeat CPU 2 instructions: 1030000000 cycles: 8540779532 heartbeat IPC: 0.119852 cumulative IPC: 0.120598 (Simulation time: 3 hr 50 min 24 sec) 
Heartbeat CPU 0 instructions: 850000000 cycles: 8564822334 heartbeat IPC: 0.0993635 cumulative IPC: 0.0992432 (Simulation time: 3 hr 50 min 54 sec) 
Heartbeat CPU 1 instructions: 860000000 cycles: 8576632050 heartbeat IPC: 0.100207 cumulative IPC: 0.100272 (Simulation time: 3 hr 51 min 8 sec) 
*** Reached end of trace for Core: 3 Repeating trace: /data/behnam/ChampSim/tracer/behnam_trace/cloud9_phase0_core3.trace.gz
Heartbeat CPU 3 instructions: 1100000000 cycles: 8591467576 heartbeat IPC: 0.127736 cumulative IPC: 0.128034 (Simulation time: 3 hr 51 min 27 sec) 
Heartbeat CPU 2 instructions: 1040000000 cycles: 8625410275 heartbeat IPC: 0.11816 cumulative IPC: 0.120574 (Simulation time: 3 hr 52 min 9 sec) 
Heartbeat CPU 0 instructions: 860000000 cycles: 8666593725 heartbeat IPC: 0.0982594 cumulative IPC: 0.0992316 (Simulation time: 3 hr 53 min 0 sec) 
Heartbeat CPU 3 instructions: 1110000001 cycles: 8670053959 heartbeat IPC: 0.127249 cumulative IPC: 0.128027 (Simulation time: 3 hr 53 min 4 sec) 
Heartbeat CPU 1 instructions: 870000003 cycles: 8677090422 heartbeat IPC: 0.0995438 cumulative IPC: 0.100264 (Simulation time: 3 hr 53 min 13 sec) 
Heartbeat CPU 2 instructions: 1050000000 cycles: 8709955773 heartbeat IPC: 0.11828 cumulative IPC: 0.120552 (Simulation time: 3 hr 53 min 53 sec) 
Heartbeat CPU 3 instructions: 1120000000 cycles: 8748475624 heartbeat IPC: 0.127516 cumulative IPC: 0.128022 (Simulation time: 3 hr 54 min 42 sec) 
Heartbeat CPU 0 instructions: 870000002 cycles: 8766590060 heartbeat IPC: 0.100004 cumulative IPC: 0.0992404 (Simulation time: 3 hr 55 min 4 sec) 
Heartbeat CPU 1 instructions: 880000000 cycles: 8775704208 heartbeat IPC: 0.101406 cumulative IPC: 0.100277 (Simulation time: 3 hr 55 min 16 sec) 
Heartbeat CPU 2 instructions: 1060000000 cycles: 8792731689 heartbeat IPC: 0.120808 cumulative IPC: 0.120554 (Simulation time: 3 hr 55 min 37 sec) 
Heartbeat CPU 3 instructions: 1130000000 cycles: 8826233037 heartbeat IPC: 0.128605 cumulative IPC: 0.128027 (Simulation time: 3 hr 56 min 19 sec) 
Heartbeat CPU 0 instructions: 880000000 cycles: 8867154326 heartbeat IPC: 0.0994389 cumulative IPC: 0.0992427 (Simulation time: 3 hr 57 min 11 sec) 
Heartbeat CPU 2 instructions: 1070000003 cycles: 8874432495 heartbeat IPC: 0.122398 cumulative IPC: 0.120571 (Simulation time: 3 hr 57 min 20 sec) 
Heartbeat CPU 1 instructions: 890000001 cycles: 8875227580 heartbeat IPC: 0.100479 cumulative IPC: 0.100279 (Simulation time: 3 hr 57 min 21 sec) 
Heartbeat CPU 3 instructions: 1140000000 cycles: 8904128919 heartbeat IPC: 0.128376 cumulative IPC: 0.12803 (Simulation time: 3 hr 57 min 58 sec) 
Heartbeat CPU 2 instructions: 1080000000 cycles: 8956124320 heartbeat IPC: 0.122411 cumulative IPC: 0.120588 (Simulation time: 3 hr 59 min 3 sec) 
Heartbeat CPU 0 instructions: 890000000 cycles: 8969304404 heartbeat IPC: 0.0978952 cumulative IPC: 0.0992273 (Simulation time: 3 hr 59 min 19 sec) 
*** Reached end of trace for Core: 1 Repeating trace: /data/behnam/ChampSim/tracer/behnam_trace/cloud9_phase0_core1.trace.gz
Heartbeat CPU 1 instructions: 900000000 cycles: 8976437628 heartbeat IPC: 0.0988044 cumulative IPC: 0.100262 (Simulation time: 3 hr 59 min 28 sec) 
Heartbeat CPU 3 instructions: 1150000001 cycles: 8981948964 heartbeat IPC: 0.128502 cumulative IPC: 0.128035 (Simulation time: 3 hr 59 min 36 sec) 
Heartbeat CPU 2 instructions: 1090000001 cycles: 9037891538 heartbeat IPC: 0.122298 cumulative IPC: 0.120603 (Simulation time: 4 hr 0 min 46 sec) 
Heartbeat CPU 3 instructions: 1160000000 cycles: 9059703588 heartbeat IPC: 0.12861 cumulative IPC: 0.12804 (Simulation time: 4 hr 1 min 13 sec) 
*** Reached end of trace for Core: 0 Repeating trace: /data/behnam/ChampSim/tracer/behnam_trace/cloud9_phase0_core0.trace.gz
Heartbeat CPU 0 instructions: 900000000 cycles: 9069033070 heartbeat IPC: 0.100272 cumulative IPC: 0.0992388 (Simulation time: 4 hr 1 min 25 sec) 
Heartbeat CPU 1 instructions: 910000003 cycles: 9077160000 heartbeat IPC: 0.0992828 cumulative IPC: 0.100252 (Simulation time: 4 hr 1 min 35 sec) 
*** Reached end of trace for Core: 2 Repeating trace: /data/behnam/ChampSim/tracer/behnam_trace/cloud9_phase0_core2.trace.gz
Heartbeat CPU 2 instructions: 1100000000 cycles: 9119541620 heartbeat IPC: 0.122474 cumulative IPC: 0.12062 (Simulation time: 4 hr 2 min 28 sec) 
Heartbeat CPU 3 instructions: 1170000002 cycles: 9137725516 heartbeat IPC: 0.128169 cumulative IPC: 0.128041 (Simulation time: 4 hr 2 min 50 sec) 
Heartbeat CPU 0 instructions: 910000000 cycles: 9169144955 heartbeat IPC: 0.0998882 cumulative IPC: 0.0992459 (Simulation time: 4 hr 3 min 29 sec) 
Heartbeat CPU 1 instructions: 920000000 cycles: 9175477265 heartbeat IPC: 0.101712 cumulative IPC: 0.100267 (Simulation time: 4 hr 3 min 36 sec) 
Heartbeat CPU 2 instructions: 1110000000 cycles: 9203297983 heartbeat IPC: 0.119394 cumulative IPC: 0.120609 (Simulation time: 4 hr 4 min 10 sec) 
Heartbeat CPU 3 instructions: 1180000000 cycles: 9215916762 heartbeat IPC: 0.127892 cumulative IPC: 0.128039 (Simulation time: 4 hr 4 min 26 sec) 
Heartbeat CPU 0 instructions: 920000000 cycles: 9270290222 heartbeat IPC: 0.0988677 cumulative IPC: 0.0992418 (Simulation time: 4 hr 5 min 33 sec) 
Heartbeat CPU 1 instructions: 930000001 cycles: 9275141390 heartbeat IPC: 0.100337 cumulative IPC: 0.100268 (Simulation time: 4 hr 5 min 39 sec) 
Heartbeat CPU 2 instructions: 1120000000 cycles: 9286445345 heartbeat IPC: 0.120268 cumulative IPC: 0.120606 (Simulation time: 4 hr 5 min 53 sec) 
Heartbeat CPU 3 instructions: 1190000000 cycles: 9294108711 heartbeat IPC: 0.12789 cumulative IPC: 0.128038 (Simulation time: 4 hr 6 min 2 sec) 
Heartbeat CPU 2 instructions: 1130000002 cycles: 9369876786 heartbeat IPC: 0.119859 cumulative IPC: 0.120599 (Simulation time: 4 hr 7 min 35 sec) 
Heartbeat CPU 0 instructions: 930000002 cycles: 9371719131 heartbeat IPC: 0.0985912 cumulative IPC: 0.0992347 (Simulation time: 4 hr 7 min 37 sec) 
*** Reached end of trace for Core: 3 Repeating trace: /data/behnam/ChampSim/tracer/behnam_trace/cloud9_phase0_core3.trace.gz
Heartbeat CPU 3 instructions: 1200000000 cycles: 9372402809 heartbeat IPC: 0.127724 cumulative IPC: 0.128035 (Simulation time: 4 hr 7 min 38 sec) 
Heartbeat CPU 1 instructions: 940000000 cycles: 9376291161 heartbeat IPC: 0.0988633 cumulative IPC: 0.100253 (Simulation time: 4 hr 7 min 43 sec) 
Heartbeat CPU 3 instructions: 1210000000 cycles: 9450992402 heartbeat IPC: 0.127243 cumulative IPC: 0.128029 (Simulation time: 4 hr 9 min 15 sec) 
Heartbeat CPU 2 instructions: 1140000000 cycles: 9454520952 heartbeat IPC: 0.118142 cumulative IPC: 0.120577 (Simulation time: 4 hr 9 min 19 sec) 
Heartbeat CPU 0 instructions: 940000000 cycles: 9471848627 heartbeat IPC: 0.0998707 cumulative IPC: 0.0992415 (Simulation time: 4 hr 9 min 40 sec) 
Heartbeat CPU 1 instructions: 950000000 cycles: 9474187875 heartbeat IPC: 0.102148 cumulative IPC: 0.100272 (Simulation time: 4 hr 9 min 43 sec) 
Heartbeat CPU 3 instructions: 1220000000 cycles: 9529443324 heartbeat IPC: 0.127468 cumulative IPC: 0.128024 (Simulation time: 4 hr 10 min 51 sec) 
Heartbeat CPU 2 instructions: 1150000002 cycles: 9539073546 heartbeat IPC: 0.11827 cumulative IPC: 0.120557 (Simulation time: 4 hr 11 min 3 sec) 
Heartbeat CPU 0 instructions: 950000001 cycles: 9572470574 heartbeat IPC: 0.0993819 cumulative IPC: 0.0992429 (Simulation time: 4 hr 11 min 44 sec) 
Heartbeat CPU 1 instructions: 960000000 cycles: 9573940702 heartbeat IPC: 0.100248 cumulative IPC: 0.100272 (Simulation time: 4 hr 11 min 46 sec) 
Heartbeat CPU 3 instructions: 1230000003 cycles: 9607268368 heartbeat IPC: 0.128493 cumulative IPC: 0.128028 (Simulation time: 4 hr 12 min 27 sec) 
Heartbeat CPU 2 instructions: 1160000000 cycles: 9621856724 heartbeat IPC: 0.120797 cumulative IPC: 0.120559 (Simulation time: 4 hr 12 min 45 sec) 
Heartbeat CPU 0 instructions: 960000000 cycles: 9674302701 heartbeat IPC: 0.0982008 cumulative IPC: 0.099232 (Simulation time: 4 hr 13 min 50 sec) 
Heartbeat CPU 1 instructions: 970000003 cycles: 9674413245 heartbeat IPC: 0.0995297 cumulative IPC: 0.100264 (Simulation time: 4 hr 13 min 50 sec) 
Heartbeat CPU 3 instructions: 1240000000 cycles: 9685165237 heartbeat IPC: 0.128375 cumulative IPC: 0.128031 (Simulation time: 4 hr 14 min 4 sec) 
Heartbeat CPU 2 instructions: 1170000000 cycles: 9703543208 heartbeat IPC: 0.122419 cumulative IPC: 0.120575 (Simulation time: 4 hr 14 min 26 sec) 
Heartbeat CPU 3 instructions: 1250000000 cycles: 9762988916 heartbeat IPC: 0.128496 cumulative IPC: 0.128035 (Simulation time: 4 hr 15 min 40 sec) 
Heartbeat CPU 1 instructions: 980000000 cycles: 9772977190 heartbeat IPC: 0.101457 cumulative IPC: 0.100277 (Simulation time: 4 hr 15 min 52 sec) 
Heartbeat CPU 0 instructions: 970000000 cycles: 9774308525 heartbeat IPC: 0.0999942 cumulative IPC: 0.0992398 (Simulation time: 4 hr 15 min 54 sec) 
Heartbeat CPU 2 instructions: 1180000000 cycles: 9785267429 heartbeat IPC: 0.122363 cumulative IPC: 0.120589 (Simulation time: 4 hr 16 min 7 sec) 
Heartbeat CPU 3 instructions: 1260000000 cycles: 9840722872 heartbeat IPC: 0.128644 cumulative IPC: 0.128039 (Simulation time: 4 hr 17 min 15 sec) 
Heartbeat CPU 2 instructions: 1190000002 cycles: 9866973203 heartbeat IPC: 0.12239 cumulative IPC: 0.120604 (Simulation time: 4 hr 17 min 49 sec) 
Heartbeat CPU 1 instructions: 990000001 cycles: 9872452893 heartbeat IPC: 0.100527 cumulative IPC: 0.100279 (Simulation time: 4 hr 17 min 56 sec) 
Heartbeat CPU 0 instructions: 980000000 cycles: 9874881281 heartbeat IPC: 0.0994305 cumulative IPC: 0.0992417 (Simulation time: 4 hr 17 min 59 sec) 
Heartbeat CPU 3 instructions: 1270000001 cycles: 9918764890 heartbeat IPC: 0.128136 cumulative IPC: 0.12804 (Simulation time: 4 hr 19 min 1 sec) 
*** Reached end of trace for Core: 2 Repeating trace: /data/behnam/ChampSim/tracer/behnam_trace/cloud9_phase0_core2.trace.gz
Heartbeat CPU 2 instructions: 1200000000 cycles: 9948602915 heartbeat IPC: 0.122504 cumulative IPC: 0.12062 (Simulation time: 4 hr 19 min 50 sec) 
*** Reached end of trace for Core: 1 Repeating trace: /data/behnam/ChampSim/tracer/behnam_trace/cloud9_phase0_core1.trace.gz
Heartbeat CPU 1 instructions: 1000000000 cycles: 9973596008 heartbeat IPC: 0.0988698 cumulative IPC: 0.100265 (Simulation time: 4 hr 20 min 44 sec) 
Finished CPU 1 instructions: 1000000000 cycles: 9973596196 cumulative IPC: 0.100265 (Simulation time: 4 hr 20 min 44 sec) 
Heartbeat CPU 0 instructions: 990000001 cycles: 9977075031 heartbeat IPC: 0.0978534 cumulative IPC: 0.0992275 (Simulation time: 4 hr 20 min 52 sec) 
Heartbeat CPU 3 instructions: 1280000000 cycles: 9996983626 heartbeat IPC: 0.127847 cumulative IPC: 0.128039 (Simulation time: 4 hr 21 min 37 sec) 
Heartbeat CPU 2 instructions: 1210000003 cycles: 10032396554 heartbeat IPC: 0.119341 cumulative IPC: 0.120609 (Simulation time: 4 hr 22 min 29 sec) 
Heartbeat CPU 1 instructions: 1010000000 cycles: 10074255597 heartbeat IPC: 0.0993447 cumulative IPC: 0.100256 (Simulation time: 4 hr 23 min 31 sec) 
Heartbeat CPU 3 instructions: 1290000001 cycles: 10075209713 heartbeat IPC: 0.127835 cumulative IPC: 0.128037 (Simulation time: 4 hr 23 min 33 sec) 
*** Reached end of trace for Core: 0 Repeating trace: /data/behnam/ChampSim/tracer/behnam_trace/cloud9_phase0_core0.trace.gz
Heartbeat CPU 0 instructions: 1000000000 cycles: 10076764308 heartbeat IPC: 0.100312 cumulative IPC: 0.0992382 (Simulation time: 4 hr 23 min 35 sec) 
Finished CPU 0 instructions: 1000000000 cycles: 10076764296 cumulative IPC: 0.0992382 (Simulation time: 4 hr 23 min 35 sec) 

CPU 0 Branch Prediction Accuracy: 99.0105% MPKI: 2.26025

CPU 1 Branch Prediction Accuracy: 98.528% MPKI: 3.37513

CPU 2 Branch Prediction Accuracy: 97.5667% MPKI: 5.28247

CPU 3 Branch Prediction Accuracy: 97.9492% MPKI: 4.46833

ChampSim completed all CPUs

Total Simulation Statistics (not including warmup)

CPU 0 cumulative IPC: 0.0992382 instructions: 1000000000 cycles: 10076764296
L1D TOTAL     ACCESS:  171706610  HIT:  163751085  MISS:    7955525
L1D LOAD      ACCESS:  102973367  HIT:   95375970  MISS:    7597397
L1D RFO       ACCESS:   68733243  HIT:   68375115  MISS:     358128
L1D PREFETCH  ACCESS:          0  HIT:          0  MISS:          0
L1D WRITEBACK ACCESS:          0  HIT:          0  MISS:          0
L1I TOTAL     ACCESS:  284871918  HIT:  284787732  MISS:      84186
L1I LOAD      ACCESS:  284871918  HIT:  284787732  MISS:      84186
L1I RFO       ACCESS:          0  HIT:          0  MISS:          0
L1I PREFETCH  ACCESS:          0  HIT:          0  MISS:          0
L1I WRITEBACK ACCESS:          0  HIT:          0  MISS:          0
L2C TOTAL     ACCESS:   12811840  HIT:    6664073  MISS:    6147767
L2C LOAD      ACCESS:    7681543  HIT:    1824943  MISS:    5856600
L2C RFO       ACCESS:     358061  HIT:      76413  MISS:     281648
L2C PREFETCH  ACCESS:          0  HIT:          0  MISS:          0
L2C WRITEBACK ACCESS:    4772236  HIT:    4762717  MISS:       9519
LLC TOTAL     ACCESS:    9726866  HIT:    5990483  MISS:    3736383
LLC LOAD      ACCESS:    5856587  HIT:    2324469  MISS:    3532118
LLC RFO       ACCESS:     281648  HIT:      83088  MISS:     198560
LLC PREFETCH  ACCESS:          0  HIT:          0  MISS:          0
LLC WRITEBACK ACCESS:    3588631  HIT:    3582926  MISS:       5705

CPU 1 cumulative IPC: 0.100253 instructions: 1010228519 cycles: 10076764296
L1D TOTAL     ACCESS:  173523579  HIT:  165204199  MISS:    8319380
L1D LOAD      ACCESS:  104699308  HIT:   96777460  MISS:    7921848
L1D RFO       ACCESS:   68824271  HIT:   68426739  MISS:     397532
L1D PREFETCH  ACCESS:          0  HIT:          0  MISS:          0
L1D WRITEBACK ACCESS:          0  HIT:          0  MISS:          0
L1I TOTAL     ACCESS:  277011486  HIT:  276925447  MISS:      86039
L1I LOAD      ACCESS:  277011486  HIT:  276925447  MISS:      86039
L1I RFO       ACCESS:          0  HIT:          0  MISS:          0
L1I PREFETCH  ACCESS:          0  HIT:          0  MISS:          0
L1I WRITEBACK ACCESS:          0  HIT:          0  MISS:          0
L2C TOTAL     ACCESS:   13407207  HIT:    7150087  MISS:    6257120
L2C LOAD      ACCESS:    8007874  HIT:    2076190  MISS:    5931684
L2C RFO       ACCESS:     397514  HIT:      83085  MISS:     314429
L2C PREFETCH  ACCESS:          0  HIT:          0  MISS:          0
L2C WRITEBACK ACCESS:    5001819  HIT:    4990812  MISS:      11007
LLC TOTAL     ACCESS:   10033893  HIT:    6273176  MISS:    3760717
LLC LOAD      ACCESS:    5931679  HIT:    2410033  MISS:    3521646
LLC RFO       ACCESS:     314429  HIT:      81735  MISS:     232694
LLC PREFETCH  ACCESS:          0  HIT:          0  MISS:          0
LLC WRITEBACK ACCESS:    3787785  HIT:    3781408  MISS:       6377

CPU 2 cumulative IPC: 0.120608 instructions: 1215339239 cycles: 10076764296
L1D TOTAL     ACCESS:  196161237  HIT:  193454487  MISS:    2706750
L1D LOAD      ACCESS:  121370268  HIT:  118670202  MISS:    2700066
L1D RFO       ACCESS:   74790969  HIT:   74784285  MISS:       6684
L1D PREFETCH  ACCESS:          0  HIT:          0  MISS:          0
L1D WRITEBACK ACCESS:          0  HIT:          0  MISS:          0
L1I TOTAL     ACCESS:  320500252  HIT:  320492876  MISS:       7376
L1I LOAD      ACCESS:  320500252  HIT:  320492876  MISS:       7376
L1I RFO       ACCESS:          0  HIT:          0  MISS:          0
L1I PREFETCH  ACCESS:          0  HIT:          0  MISS:          0
L1I WRITEBACK ACCESS:          0  HIT:          0  MISS:          0
L2C TOTAL     ACCESS:    3912546  HIT:    1425225  MISS:    2487321
L2C LOAD      ACCESS:    2707440  HIT:     227156  MISS:    2480284
L2C RFO       ACCESS:       6684  HIT:        705  MISS:       5979
L2C PREFETCH  ACCESS:          0  HIT:          0  MISS:          0
L2C WRITEBACK ACCESS:    1198422  HIT:    1197364  MISS:       1058
LLC TOTAL     ACCESS:    3647379  HIT:    1408991  MISS:    2238388
LLC LOAD      ACCESS:    2480284  HIT:     277721  MISS:    2202563
LLC RFO       ACCESS:       5979  HIT:        318  MISS:       5661
LLC PREFETCH  ACCESS:          0  HIT:          0  MISS:          0
LLC WRITEBACK ACCESS:    1161116  HIT:    1130952  MISS:      30164

CPU 3 cumulative IPC: 0.128037 instructions: 1290197009 cycles: 10076764296
L1D TOTAL     ACCESS:  202028685  HIT:  199212141  MISS:    2816544
L1D LOAD      ACCESS:  124392548  HIT:  121579209  MISS:    2813339
L1D RFO       ACCESS:   77636137  HIT:   77632932  MISS:       3205
L1D PREFETCH  ACCESS:          0  HIT:          0  MISS:          0
L1D WRITEBACK ACCESS:          0  HIT:          0  MISS:          0
L1I TOTAL     ACCESS:  343664003  HIT:  343663732  MISS:        271
L1I LOAD      ACCESS:  343664003  HIT:  343663732  MISS:        271
L1I RFO       ACCESS:          0  HIT:          0  MISS:          0
L1I PREFETCH  ACCESS:          0  HIT:          0  MISS:          0
L1I WRITEBACK ACCESS:          0  HIT:          0  MISS:          0
L2C TOTAL     ACCESS:    4073525  HIT:    1494099  MISS:    2579426
L2C LOAD      ACCESS:    2813610  HIT:     237956  MISS:    2575654
L2C RFO       ACCESS:       3205  HIT:        302  MISS:       2903
L2C PREFETCH  ACCESS:          0  HIT:          0  MISS:          0
L2C WRITEBACK ACCESS:    1256710  HIT:    1255841  MISS:        869
LLC TOTAL     ACCESS:    3795205  HIT:    1493556  MISS:    2301649
LLC LOAD      ACCESS:    2575654  HIT:     306366  MISS:    2269288
LLC RFO       ACCESS:       2903  HIT:         53  MISS:       2850
LLC PREFETCH  ACCESS:          0  HIT:          0  MISS:          0
LLC WRITEBACK ACCESS:    1216648  HIT:    1187137  MISS:      29511

Region of Interest Statistics

CPU 0 cumulative IPC: 0.0992382 instructions: 1000000000 cycles: 10076764296
L1D TOTAL     ACCESS:  171706610  HIT:  163751085  MISS:    7955525
L1D LOAD      ACCESS:  102973367  HIT:   95375970  MISS:    7597397
L1D RFO       ACCESS:   68733243  HIT:   68375115  MISS:     358128
L1D PREFETCH  ACCESS:          0  HIT:          0  MISS:          0
L1D WRITEBACK ACCESS:          0  HIT:          0  MISS:          0
L1D PREFETCH  REQUESTED:          0  ISSUED:          0  USEFUL:          0  USELESS:          0
[...]
4075,5,78,201,2,3,4,4,3,5,5,8,2,6,4,9,7,4,9,3,201,0,273,0
4075,6,99,193,0,3,4,7,4,14,11,7,2,11,3,4,8,7,9,5,193,0,288,0
4075,7,77,202,0,5,5,5,5,8,3,7,4,5,4,8,2,5,5,6,202,0,277,0
4075,8,76,206,2,5,7,5,1,10,7,7,2,4,8,5,1,5,4,3,206,0,279,0
4075,9,66,213,1,5,8,5,4,2,2,7,0,6,8,4,0,6,6,2,213,0,275,0
4075,10,74,208,1,3,3,6,3,3,4,7,2,5,6,9,4,5,7,6,208,0,278,0
4075,11,97,195,2,3,9,5,2,7,7,9,5,11,1,9,3,9,11,4,195,0,289,0
4075,12,111,182,1,8,9,7,2,14,9,5,3,9,4,5,6,11,9,9,182,0,290,0
4075,13,84,202,2,6,4,8,6,5,3,7,3,4,7,7,3,4,8,7,202,0,282,0
4075,14,61,208,0,3,2,11,0,4,3,6,1,4,4,6,7,2,3,5,208,0,264,0
4075,15,56,214,0,6,3,5,4,3,4,4,1,3,0,2,5,5,4,7,214,0,268,0
4076,0,71,181,1,9,1,4,3,5,5,8,2,4,3,3,6,8,8,1,181,0,252,0
4076,1,49,195,0,2,8,3,3,5,0,3,2,7,2,1,3,3,4,3,195,0,244,0
4076,2,64,187,0,3,5,4,5,2,6,4,1,3,3,5,4,9,8,2,187,0,251,0
4076,3,59,182,1,5,5,1,3,8,5,3,0,6,4,2,1,8,3,4,182,0,241,0
4076,4,71,176,0,4,2,7,3,4,5,4,5,9,5,4,1,6,5,7,176,0,247,0
4076,5,78,182,3,9,3,6,3,4,1,0,6,5,4,3,5,2,14,10,182,0,260,0
4076,6,67,184,1,5,5,3,8,2,3,5,3,6,2,4,6,6,3,5,184,0,251,0
4076,7,69,191,1,7,1,2,3,2,6,7,5,3,5,2,9,6,10,0,191,0,260,0
4076,8,50,190,1,5,2,5,1,2,3,3,1,4,3,6,3,4,6,1,190,0,240,0
4076,9,80,180,0,4,2,4,6,5,4,7,9,9,9,4,4,4,6,3,180,0,260,0
4076,10,62,182,0,4,3,4,3,5,3,7,2,2,1,7,6,5,7,3,182,0,244,0
4076,11,47,192,0,3,2,3,2,3,1,4,3,2,9,4,2,4,2,3,192,0,239,0
4076,12,46,193,3,3,2,4,0,4,4,5,2,4,0,0,3,7,1,4,193,0,239,0
4076,13,73,179,1,8,4,5,2,4,5,3,2,7,5,2,2,8,7,8,179,0,252,0
4076,14,77,179,0,9,3,5,4,2,1,2,10,10,7,2,5,4,3,10,179,0,256,0
4076,15,63,185,0,6,4,5,1,2,4,5,6,4,2,5,5,5,3,6,185,0,248,0
4077,0,71,192,0,4,8,5,1,8,3,6,3,4,3,5,2,7,5,7,192,0,256,0
4077,1,160,166,3,11,15,12,11,5,11,12,1,12,16,8,19,7,12,5,166,0,322,0
4077,2,77,205,0,3,4,8,2,4,8,5,2,3,8,7,4,9,5,5,205,0,277,0
4077,3,59,209,0,8,0,3,3,4,2,3,1,6,3,4,7,4,4,7,209,0,261,0
4077,4,100,183,0,11,10,5,2,12,8,6,1,5,9,7,5,5,6,8,183,0,280,0
4077,5,75,203,1,5,7,6,0,2,8,3,1,6,5,5,9,4,6,7,203,0,275,0
4077,6,66,210,0,6,4,2,4,7,7,4,2,4,6,5,5,3,5,2,210,0,268,0
4077,7,88,195,1,3,5,6,6,7,9,2,4,6,6,8,2,8,8,7,195,0,279,0
4077,8,80,193,0,2,6,3,3,4,13,7,4,6,5,3,10,3,4,7,193,0,271,0
4077,9,89,190,2,4,7,4,4,6,9,6,3,3,10,6,7,3,9,6,190,0,278,0
4077,10,60,212,1,4,4,3,2,2,3,5,4,6,3,6,2,8,3,4,212,0,271,0
4077,11,115,180,0,9,7,8,4,11,9,13,6,7,4,8,8,5,8,8,180,0,291,0
4077,12,82,197,0,7,2,1,0,5,8,6,3,7,11,7,7,6,7,5,197,0,277,0
4077,13,62,208,0,3,6,3,4,3,4,7,1,3,7,5,5,4,2,5,208,0,266,0
4077,14,64,200,0,4,2,4,2,5,2,8,2,6,4,5,8,4,4,4,200,0,263,0
4077,15,122,182,1,8,11,7,7,9,8,6,2,3,14,7,7,9,15,8,182,0,300,0
4078,0,97,199,0,8,12,6,6,8,9,3,4,3,6,7,8,8,6,3,199,0,296,0
4078,1,100,193,1,3,6,6,6,6,11,8,2,9,9,6,8,7,6,6,193,0,293,0
4078,2,90,207,1,10,4,4,2,8,3,5,4,14,7,2,12,4,6,4,207,0,297,0
4078,3,75,217,0,5,3,8,5,4,3,6,4,6,6,4,5,4,8,4,217,0,292,0
4078,4,82,207,1,13,6,2,7,3,9,1,4,5,3,4,5,7,8,4,207,0,289,0
4078,5,61,216,0,2,5,3,1,4,4,5,0,4,5,4,7,4,10,3,216,0,277,0
4078,6,66,213,1,2,7,4,4,2,8,3,2,6,3,2,7,6,6,3,213,0,279,0
4078,7,62,212,1,3,4,4,3,5,10,4,4,2,4,2,4,3,3,6,212,0,274,0
4078,8,57,213,0,3,1,2,4,5,1,4,1,5,5,7,9,3,5,2,213,0,270,0
4078,9,94,194,0,5,5,7,4,6,7,6,2,4,11,5,6,7,9,10,194,0,288,0
4078,10,68,217,0,5,5,2,3,4,8,1,2,5,8,2,9,5,6,3,217,0,285,0
4078,11,71,202,0,6,5,4,3,5,6,5,2,6,3,6,4,5,6,5,202,0,273,0
4078,12,79,208,0,7,8,7,1,5,3,2,2,9,8,5,7,7,6,2,208,0,287,0
4078,13,105,201,0,8,8,7,13,7,9,5,5,7,9,6,5,8,5,3,201,0,306,0
4078,14,56,218,0,3,2,5,0,1,5,7,1,7,4,7,3,7,2,2,218,0,274,0
4078,15,96,200,1,11,6,8,3,7,7,5,2,9,7,2,4,9,9,6,200,0,296,0
4079,0,40,217,0,2,3,2,0,2,4,3,1,6,3,3,1,3,4,3,217,0,247,0
4079,1,55,207,0,3,4,4,3,4,4,5,4,5,2,5,0,3,4,5,207,0,252,0
4079,2,50,212,0,1,3,7,2,2,1,2,2,5,3,4,3,4,5,6,212,0,255,0
4079,3,50,212,1,6,1,1,2,4,2,3,1,5,6,5,2,3,5,3,212,0,255,0
4079,4,64,199,0,9,6,3,0,0,4,9,1,6,2,3,4,8,5,4,199,0,259,0
4079,5,72,196,1,1,6,7,1,4,8,8,1,7,2,5,4,9,4,4,196,0,253,0
4079,6,53,207,0,3,2,3,3,2,4,5,2,3,3,3,2,6,7,5,207,0,252,0
4079,7,60,200,0,4,2,6,1,4,2,5,3,3,2,7,6,3,7,5,200,0,251,0
4079,8,53,209,0,4,2,5,6,3,5,7,1,5,2,3,2,1,1,6,209,0,252,0
4079,9,69,200,0,5,2,5,2,6,6,5,3,7,5,2,4,6,4,7,200,0,261,0
4079,10,69,196,2,3,5,5,4,7,4,6,2,8,2,5,3,1,4,8,196,0,255,0
4079,11,60,207,1,7,4,4,3,5,4,3,1,2,2,3,6,2,8,5,207,0,262,0
4079,12,72,200,0,9,8,6,0,5,5,3,2,6,4,5,5,5,1,8,200,0,263,0
4079,13,64,209,0,3,2,7,7,2,3,1,3,5,3,7,5,9,3,4,209,0,262,0
4079,14,55,211,0,7,2,2,2,5,3,4,2,2,1,7,0,7,7,4,211,0,252,0
4079,15,70,204,1,7,3,8,2,7,2,3,5,5,4,4,5,5,4,5,204,0,268,0
4080,0,56,201,2,3,6,1,1,4,4,2,4,5,3,2,1,4,6,8,201,0,257,0
4080,1,77,182,0,7,4,5,6,3,8,5,1,6,2,7,2,11,6,4,182,0,259,0
4080,2,71,192,0,5,5,5,3,7,2,4,2,7,5,6,1,6,9,4,192,0,263,0
4080,3,67,193,1,6,0,3,3,2,7,5,1,8,3,6,6,9,3,4,193,0,260,0
4080,4,84,181,1,5,9,5,3,4,7,5,3,8,9,8,2,4,6,5,181,0,265,0
4080,5,74,189,4,4,5,8,1,2,9,5,3,2,3,7,6,3,7,5,189,0,263,0
4080,6,75,196,0,5,5,3,5,5,10,9,2,2,6,3,4,9,3,4,196,0,271,0
4080,7,80,180,0,3,2,6,0,6,8,9,0,7,4,10,6,5,5,9,180,0,260,0
4080,8,103,175,2,5,14,7,7,9,5,3,0,7,8,8,8,3,10,7,175,0,278,0
4080,9,49,198,0,4,7,4,1,1,2,2,1,5,3,5,4,2,6,2,198,0,247,0
4080,10,77,188,1,6,6,3,7,2,5,5,3,7,5,6,5,9,4,3,188,0,265,0
4080,11,63,198,1,2,7,0,0,4,6,10,0,5,6,1,6,3,7,5,198,0,261,0
4080,12,66,187,1,2,4,6,3,3,3,4,2,7,2,6,4,8,6,5,187,0,253,0
4080,13,95,174,0,7,8,6,2,8,3,6,3,6,5,4,6,8,15,8,174,0,269,0
4080,14,45,200,0,4,2,7,4,6,3,2,1,1,2,5,1,4,1,2,200,0,245,0
4080,15,61,199,0,5,1,2,4,3,3,3,5,6,3,3,5,5,9,4,199,0,260,0
4081,0,47,178,1,2,1,4,1,4,4,5,1,3,0,6,3,5,4,3,178,0,223,0
4081,1,85,156,1,4,2,4,4,8,7,4,4,8,6,3,5,14,3,8,156,0,241,0
4081,2,49,175,0,2,3,2,3,3,3,3,1,5,2,6,6,3,3,4,175,0,223,0
4081,3,93,146,0,7,7,5,5,6,9,5,2,3,6,8,4,16,3,7,146,0,239,0
4081,4,76,168,1,3,3,8,4,5,5,4,1,5,7,10,5,6,4,5,168,0,243,0
4081,5,63,175,0,6,3,8,4,6,0,6,4,3,6,1,4,3,4,5,175,0,237,0
4081,6,73,168,0,2,4,10,1,3,7,5,3,4,10,6,6,2,4,6,168,0,241,0
4081,7,45,178,0,2,1,4,1,5,1,3,1,3,6,2,3,7,4,2,178,0,222,0
4081,8,79,168,0,6,5,5,2,7,4,5,4,6,6,5,1,12,6,5,168,0,247,0
4081,9,70,176,1,2,6,5,1,7,7,8,2,9,3,1,3,6,5,4,176,0,246,0
4081,10,62,175,0,4,9,6,2,3,5,4,1,2,4,7,3,8,2,2,175,0,236,0
4081,11,76,167,0,7,2,7,4,3,7,7,2,11,9,4,4,2,4,3,167,0,243,0
4081,12,62,172,0,6,3,2,6,8,3,3,2,1,2,4,5,5,5,7,172,0,232,0
4081,13,53,180,0,5,2,5,5,6,5,2,1,2,5,3,2,3,5,2,180,0,232,0
4081,14,80,159,2,2,5,3,3,5,3,8,4,2,7,6,7,3,10,10,159,0,239,0
4081,15,37,179,1,2,5,3,2,5,2,2,1,2,3,0,2,2,2,3,179,0,216,0
4082,0,65,186,3,6,3,8,8,3,5,3,2,3,3,3,5,3,2,5,186,0,251,0
4082,1,49,185,1,4,2,6,2,3,2,2,2,6,5,4,1,5,0,4,185,0,234,0
4082,2,50,189,0,2,2,4,1,3,5,4,4,4,2,4,1,8,4,2,189,0,239,0
4082,3,58,180,1,2,2,4,3,7,3,6,2,4,4,6,1,6,3,4,180,0,238,0
4082,4,56,186,1,1,4,6,1,2,3,7,1,6,5,5,2,3,5,4,186,0,242,0
4082,5,67,176,0,6,4,6,1,6,5,6,4,5,3,7,0,3,7,4,176,0,243,0
4082,6,69,183,1,4,5,8,2,6,5,4,4,5,2,5,4,5,6,3,183,0,252,0
4082,7,84,173,3,6,6,5,5,7,3,8,4,4,2,12,5,1,7,6,173,0,257,0
4082,8,52,188,1,4,5,8,1,3,3,2,1,4,3,4,4,1,2,6,188,0,240,0
4082,9,78,175,1,4,6,4,5,6,7,8,2,6,7,7,4,7,1,3,175,0,253,0
4082,10,67,191,1,4,4,10,2,7,5,2,4,4,5,2,4,6,5,2,191,0,258,0
4082,11,76,173,0,6,5,5,7,6,3,3,0,7,2,10,2,9,2,9,173,0,249,0
4082,12,109,150,0,7,8,6,9,9,4,8,4,1,6,12,5,13,5,12,150,0,259,0
4082,13,88,170,0,6,6,3,3,10,10,6,3,1,6,10,8,5,5,6,170,0,258,0
4082,14,38,190,0,2,4,4,1,3,2,5,2,3,3,3,3,1,1,1,190,0,228,0
4082,15,82,170,2,2,6,5,5,2,5,8,2,6,5,5,10,3,6,10,170,0,252,0
4083,0,112,168,0,7,18,8,3,7,9,8,6,7,10,3,10,5,1,10,168,0,280,0
4083,1,75,180,0,3,7,3,7,1,2,9,3,8,8,5,5,4,0,10,180,0,255,0
4083,2,109,173,0,3,12,5,11,3,10,8,7,5,8,9,9,8,7,4,173,0,282,0
4083,3,68,185,0,2,8,4,9,6,3,2,1,3,4,7,6,3,4,6,185,0,253,0
4083,4,47,194,0,4,2,1,4,2,3,6,3,3,0,5,4,3,4,3,194,0,241,0
4083,5,76,188,0,2,5,5,7,0,5,5,7,7,7,5,6,4,6,5,188,0,264,0
4083,6,63,189,0,2,3,6,5,2,4,2,6,2,4,4,6,5,5,7,189,0,252,0
4083,7,54,192,0,1,3,6,4,1,6,2,1,5,7,2,3,6,3,4,192,0,246,0
4083,8,97,171,1,2,5,8,7,6,7,5,2,5,10,8,7,13,4,7,171,0,268,0
4083,9,76,185,0,6,3,4,4,5,12,5,5,1,2,7,4,8,6,4,185,0,261,0
4083,10,90,178,0,11,4,3,13,4,5,6,4,4,8,7,7,7,4,3,178,0,268,0
4083,11,132,157,1,6,12,8,6,10,4,7,6,9,15,12,13,4,10,9,157,0,289,0
4083,12,43,197,0,3,2,9,1,0,2,5,4,2,2,1,5,2,3,2,197,0,240,0
4083,13,109,169,0,4,6,6,9,6,12,8,5,5,4,9,14,6,8,7,169,0,278,0
4083,14,71,191,1,3,7,4,5,6,4,4,4,3,4,4,8,3,4,7,191,0,262,0
4083,15,49,195,0,5,4,7,3,2,3,2,1,2,2,5,4,5,3,1,195,0,244,0
4084,0,66,175,0,6,1,5,5,5,2,8,2,3,5,7,4,5,4,4,175,0,237,0
4084,1,77,171,1,6,3,8,7,6,3,2,3,7,4,8,4,6,5,4,171,0,246,0
4084,2,46,186,0,2,4,4,2,2,1,1,2,4,4,2,6,5,4,3,186,0,228,0
4084,3,66,175,2,5,6,4,4,4,2,2,1,5,4,7,6,5,7,2,175,0,237,0
4084,4,80,167,0,10,3,5,3,6,5,4,4,10,4,6,4,5,4,7,167,0,242,0
4084,5,81,170,0,4,2,6,3,8,7,7,3,7,5,8,4,4,7,6,170,0,251,0
4084,6,70,167,0,5,5,3,2,6,7,6,2,9,1,4,3,6,6,5,167,0,235,0
4084,7,71,171,1,4,6,6,3,6,9,6,1,6,4,6,2,1,5,5,171,0,238,0
4084,8,38,186,2,3,3,3,4,2,3,0,0,4,1,7,1,1,2,2,186,0,221,0
4084,9,60,174,1,2,6,3,3,9,3,0,3,4,5,5,2,8,4,2,174,0,231,0
4084,10,54,183,1,4,3,2,1,7,2,1,2,9,4,3,1,6,4,4,183,0,233,0
4084,11,119,147,2,9,7,7,8,14,6,3,3,5,5,12,10,12,7,9,147,0,264,0
4084,12,69,176,2,2,6,6,6,1,6,3,1,7,3,7,4,5,7,3,176,0,240,0
4084,13,24,193,0,1,1,1,0,5,1,3,0,0,3,3,0,2,2,2,193,0,216,0
4084,14,65,178,1,4,3,5,5,2,6,6,5,4,6,5,1,3,5,4,178,0,240,0
4084,15,68,173,2,2,6,7,4,3,1,4,3,9,5,5,4,6,5,2,173,0,237,0
4085,0,90,185,0,1,4,5,6,10,7,8,1,6,6,8,3,8,9,8,185,0,272,0
4085,1,80,188,1,4,4,6,4,4,3,6,2,0,2,11,7,7,6,13,188,0,267,0
4085,2,63,211,0,3,3,5,2,7,1,5,1,3,2,6,8,7,7,3,211,0,273,0
4085,3,76,197,1,9,4,6,2,6,4,7,1,5,2,6,5,8,5,5,197,0,272,0
4085,4,92,198,0,5,11,3,5,5,4,6,2,13,6,7,6,4,6,9,198,0,290,0
4085,5,81,196,1,5,2,6,4,4,5,11,0,7,5,5,3,5,7,11,196,0,277,0
4085,6,88,197,1,5,8,4,6,9,8,7,1,8,6,7,4,6,3,5,197,0,285,0
4085,7,75,199,0,6,6,9,1,5,4,7,1,2,4,8,4,2,6,10,199,0,273,0
4085,8,82,196,0,4,6,5,6,5,4,12,0,5,7,6,7,9,4,2,196,0,277,0
4085,9,63,204,0,2,5,6,2,2,6,5,1,6,6,8,2,5,1,6,204,0,266,0
4085,10,73,210,0,2,6,1,4,5,3,6,3,0,7,7,5,8,7,9,210,0,282,0
4085,11,83,194,1,7,2,5,4,10,4,2,2,6,4,10,7,7,5,7,194,0,277,0
4085,12,91,186,0,1,7,9,4,9,5,7,1,4,7,10,3,9,4,11,186,0,277,0
4085,13,64,207,0,3,5,7,4,5,8,7,1,2,5,2,3,5,0,7,207,0,271,0
4085,14,78,201,2,4,5,6,5,6,5,8,1,1,3,9,4,10,3,6,201,0,279,0
4085,15,67,204,1,3,5,5,2,4,4,11,1,4,2,8,3,5,3,6,204,0,271,0
4086,0,57,180,0,6,2,4,1,5,4,4,4,3,4,3,2,3,8,4,180,0,235,0
4086,1,54,181,1,2,1,6,7,4,4,7,1,6,2,1,6,2,2,2,181,0,230,0
4086,2,34,192,3,3,1,3,1,2,2,4,1,1,0,3,0,1,3,6,192,0,225,0
4086,3,50,180,0,5,1,4,3,4,3,5,3,3,1,3,2,6,2,5,180,0,222,0
4086,4,54,181,2,4,3,3,1,1,4,9,2,3,2,5,2,7,1,5,181,0,229,0
4086,5,28,195,0,1,0,6,2,5,0,2,0,2,1,3,0,1,2,3,195,0,220,0
4086,6,60,182,2,4,5,4,1,5,3,7,1,5,4,6,4,5,1,3,182,0,240,0
4086,7,53,182,0,4,1,3,5,9,3,4,0,4,2,7,1,2,3,5,182,0,231,0
4086,8,89,164,2,7,4,6,6,6,9,3,2,9,7,4,3,10,6,5,164,0,249,0
4086,9,47,179,1,4,2,5,1,2,2,6,1,3,3,7,2,4,1,3,179,0,224,0
4086,10,50,180,0,6,3,3,2,3,4,4,1,5,1,3,6,3,2,4,180,0,229,0
4086,11,32,193,2,1,3,1,3,2,2,1,0,3,2,4,1,2,1,4,193,0,223,0
4086,12,90,161,5,2,6,6,5,9,6,4,1,10,3,7,7,4,8,7,161,0,243,0
4086,13,60,176,1,7,5,5,4,3,2,5,0,4,7,5,1,2,6,3,176,0,234,0
4086,14,57,178,1,3,3,4,3,3,5,4,4,2,4,6,3,4,2,6,178,0,227,0
4086,15,67,172,0,6,4,5,3,4,1,8,5,2,6,4,3,7,7,2,172,0,237,0
4087,0,68,199,0,3,4,5,4,3,6,5,2,3,3,7,5,8,8,2,199,0,266,0
4087,1,97,179,0,9,7,6,5,7,9,5,2,2,7,8,6,13,5,6,179,0,274,0
4087,2,71,190,1,7,1,14,4,4,3,5,1,5,3,2,4,3,3,11,190,0,257,0
4087,3,89,186,1,5,8,5,3,9,4,8,3,7,5,9,4,5,7,6,186,0,272,0
4087,4,68,190,0,3,7,9,0,4,5,9,2,4,3,4,1,6,4,7,190,0,258,0
4087,5,83,186,0,4,3,7,3,5,7,9,0,10,6,7,3,1,12,6,186,0,268,0
4087,6,73,201,1,5,6,10,4,4,5,3,3,5,3,5,2,11,5,1,201,0,274,0
4087,7,94,187,0,9,6,6,3,6,8,8,4,7,4,5,4,7,8,9,187,0,277,0
4087,8,69,192,0,4,1,6,1,6,5,4,3,5,4,5,6,8,7,4,192,0,260,0
4087,9,83,186,3,5,4,8,2,6,5,8,3,7,7,4,4,5,7,5,186,0,268,0
4087,10,77,196,1,10,4,3,3,4,4,5,5,4,7,6,4,9,7,1,196,0,271,0
4087,11,73,188,0,5,3,3,2,7,7,9,2,9,4,8,1,6,4,3,188,0,259,0
4087,12,65,193,1,9,4,4,3,3,3,7,3,4,3,7,4,3,3,4,193,0,256,0
4087,13,81,189,1,6,2,6,4,10,3,6,1,3,10,4,5,6,10,4,189,0,267,0
4087,14,63,195,0,5,8,4,4,5,4,6,0,5,3,6,4,5,2,2,195,0,258,0
4087,15,75,194,1,5,5,3,3,6,6,2,3,9,7,3,4,7,8,3,194,0,265,0
4088,0,60,181,0,5,3,4,7,3,3,4,4,5,0,7,4,2,5,4,181,0,241,0
4088,1,44,181,0,5,2,2,3,4,0,2,1,4,2,1,1,5,2,10,181,0,225,0
4088,2,70,177,0,4,2,3,5,4,9,3,5,5,5,6,5,6,4,4,177,0,247,0
4088,3,70,175,0,8,4,2,8,6,8,1,9,8,2,1,2,5,1,5,175,0,244,0
4088,4,70,169,1,1,5,5,2,11,7,8,2,6,5,2,5,0,6,4,169,0,237,0
4088,5,70,174,0,5,6,5,3,5,7,6,4,3,6,3,6,2,7,2,174,0,244,0
4088,6,81,174,0,10,9,7,2,3,5,4,4,5,9,4,5,4,8,2,174,0,255,0
4088,7,78,169,0,3,3,5,4,10,6,5,4,7,6,1,6,9,6,3,169,0,247,0
4088,8,78,165,0,7,0,4,3,8,3,4,6,5,5,8,5,7,11,2,165,0,242,0
4088,9,69,178,1,4,7,2,4,6,3,6,4,2,9,3,3,6,7,2,178,0,247,0
4088,10,52,176,0,6,1,3,1,3,6,2,1,6,3,5,5,1,5,4,176,0,228,0
4088,11,80,169,4,3,6,6,5,5,7,2,4,3,3,9,6,6,8,3,169,0,245,0
4088,12,69,174,1,4,2,6,6,6,3,2,3,4,6,2,6,5,9,4,174,0,243,0
4088,13,96,155,1,5,4,10,6,8,7,4,6,7,7,6,7,6,6,6,155,0,249,0
4088,14,71,174,3,2,4,3,6,6,7,5,4,7,5,1,5,4,6,3,174,0,245,0
4088,15,62,171,1,4,7,3,4,6,3,2,0,4,6,8,5,4,2,3,171,0,233,0
4089,0,78,200,0,6,3,3,5,2,5,4,2,9,6,7,7,5,10,4,200,0,274,0
4089,1,83,185,1,7,6,6,1,4,4,10,2,8,7,4,2,10,6,5,185,0,264,0
4089,2,68,187,1,7,7,7,3,3,4,4,2,2,5,6,3,7,2,5,187,0,252,0
4089,3,130,162,1,4,8,11,7,10,15,7,2,9,15,8,6,6,11,10,162,0,292,0
4089,4,80,190,0,2,6,4,4,6,10,6,1,6,10,3,4,3,9,6,190,0,267,0
4089,5,62,190,0,7,3,1,0,5,6,1,2,2,7,10,2,5,6,5,190,0,248,0
4089,6,84,183,0,6,5,6,5,3,9,9,0,6,6,12,2,8,3,4,183,0,260,0
4089,7,100,181,2,6,7,5,6,9,9,8,4,8,7,6,6,4,4,9,181,0,281,0
4089,8,76,190,0,5,10,2,2,5,8,5,1,4,7,4,5,5,2,11,190,0,261,0
4089,9,73,183,1,3,2,7,4,8,1,2,0,5,5,6,2,4,10,13,183,0,251,0
4089,10,74,190,1,5,3,6,3,8,7,5,0,3,7,3,3,3,8,9,190,0,261,0
4089,11,64,194,0,5,3,7,4,4,1,5,2,4,6,4,4,6,6,3,194,0,257,0
4089,12,66,183,0,3,2,9,2,6,3,9,0,7,4,4,1,5,6,5,183,0,245,0
4089,13,106,178,3,5,13,7,3,5,6,6,0,4,9,5,9,10,11,10,178,0,282,0
4089,14,81,204,2,3,10,2,7,7,7,1,4,12,8,3,2,4,5,4,204,0,284,0
4089,15,60,198,0,6,5,4,2,4,1,5,2,10,3,5,3,5,2,3,198,0,254,0
4090,0,56,187,1,4,5,4,6,2,4,3,2,1,5,0,4,6,4,5,187,0,242,0
4090,1,52,199,3,2,11,1,5,3,7,3,2,3,3,1,7,0,1,0,199,0,251,0
4090,2,68,191,2,5,8,2,5,0,10,4,1,6,5,1,7,7,3,2,191,0,258,0
4090,3,47,196,4,4,3,4,4,2,4,2,1,3,2,0,3,5,4,2,196,0,243,0
4090,4,64,193,3,6,5,4,2,2,7,1,8,5,4,4,4,4,2,3,193,0,256,0
4090,5,57,193,1,5,3,1,3,4,4,4,5,2,4,3,4,4,5,5,193,0,250,0
4090,6,70,189,1,4,3,5,5,8,6,4,2,7,7,4,8,1,4,1,189,0,259,0
4090,7,73,184,3,3,2,5,6,4,5,5,3,5,4,6,6,6,6,4,184,0,257,0
4090,8,36,196,2,3,3,3,1,3,1,0,4,1,1,1,2,2,6,3,196,0,231,0
4090,9,45,198,2,2,1,0,4,1,6,1,3,3,9,1,3,2,4,3,198,0,242,0
4090,10,62,185,3,6,4,2,4,1,4,2,1,8,8,3,5,7,3,1,185,0,247,0
4090,11,35,201,1,3,4,3,2,1,4,1,3,1,4,2,0,1,3,2,201,0,236,0
4090,12,82,170,0,6,3,7,5,2,11,2,5,5,12,1,3,6,9,5,170,0,250,0
4090,13,66,183,2,7,7,2,4,2,8,0,4,7,9,0,7,0,5,2,183,0,249,0
4090,14,67,183,0,7,5,1,2,3,9,4,4,5,9,4,7,4,1,2,183,0,249,0
4090,15,66,188,0,0,3,1,4,4,6,0,7,10,7,3,10,1,5,5,188,0,252,0
4091,0,80,188,0,3,5,10,4,6,6,5,4,8,5,4,4,6,5,5,188,0,265,0
4091,1,80,193,2,4,9,2,3,6,4,7,4,6,6,4,4,7,6,6,193,0,269,0
4091,2,85,191,0,4,5,7,6,6,7,6,4,6,5,7,8,4,7,3,191,0,271,0
4091,3,117,174,1,2,7,4,9,9,11,6,7,11,4,9,9,12,9,7,174,0,282,0
4091,4,85,194,0,4,10,4,5,6,7,4,3,8,6,6,5,6,6,5,194,0,270,0
4091,5,71,194,1,6,3,7,4,1,1,6,4,3,5,7,7,8,3,5,194,0,262,0
4091,6,76,194,0,7,5,6,4,6,5,4,2,4,4,4,9,5,9,2,194,0,261,0
4091,7,81,194,1,3,3,5,8,3,6,6,3,4,6,7,10,4,6,6,194,0,267,0
4091,8,94,187,0,4,11,5,8,6,4,8,8,8,4,5,5,9,3,6,187,0,279,0
4091,9,71,200,1,5,1,3,5,3,4,8,4,4,5,5,7,8,6,2,200,0,264,0
4091,10,95,193,0,5,5,9,9,8,2,6,12,2,7,7,6,5,9,3,193,0,282,0
4091,11,74,194,0,10,2,7,6,5,6,4,6,4,2,4,6,6,2,4,194,0,261,0
4091,12,104,182,2,3,9,7,6,8,12,8,3,4,10,6,4,7,3,12,182,0,279,0
4091,13,56,205,0,3,5,3,6,3,3,7,3,4,4,4,2,4,2,3,205,0,260,0
4091,14,93,189,0,16,8,6,1,1,8,5,1,4,8,5,8,7,9,6,189,0,278,0
4091,15,85,194,1,7,5,5,5,4,4,6,3,5,9,3,7,7,7,7,194,0,272,0
4092,0,69,182,0,8,4,6,4,5,3,5,1,6,2,7,6,5,1,6,182,0,250,0
4092,1,76,192,1,5,3,7,2,3,7,4,2,3,12,4,3,7,9,4,192,0,265,0
4092,2,61,190,1,3,4,6,1,2,8,5,0,2,8,4,3,5,3,6,190,0,249,0
4092,3,67,179,0,5,3,7,0,2,2,8,1,5,9,7,2,7,6,3,179,0,246,0
4092,4,49,190,0,2,7,5,2,1,4,6,2,2,2,3,2,4,5,2,190,0,239,0
4092,5,91,162,1,5,6,4,0,6,5,8,1,7,10,3,10,7,6,12,162,0,252,0
4092,6,82,176,1,8,6,5,3,4,7,11,1,4,3,11,2,6,5,5,176,0,255,0
4092,7,77,174,0,5,1,5,3,11,3,10,2,5,2,3,4,10,7,6,174,0,251,0
4092,8,53,185,0,2,5,1,2,6,3,3,1,6,4,8,3,2,3,4,185,0,236,0
4092,9,76,177,1,4,3,7,4,4,9,7,1,3,5,8,3,4,10,3,177,0,252,0
4092,10,56,192,0,5,1,4,4,8,4,2,3,6,1,3,0,5,5,5,192,0,248,0
4092,11,63,187,0,5,2,4,1,5,1,8,1,4,9,1,2,4,5,11,187,0,248,0
4092,12,66,185,0,2,1,8,3,2,4,9,3,6,3,4,4,6,2,9,185,0,251,0
4092,13,69,184,0,4,5,9,2,4,4,6,1,5,3,4,4,8,4,6,184,0,250,0
4092,14,62,185,1,1,2,7,4,5,9,2,1,2,4,6,3,5,4,6,185,0,245,0
4092,15,69,178,1,3,6,7,1,3,4,5,2,7,5,5,1,4,9,6,178,0,247,0
4093,0,48,199,2,2,6,5,3,2,1,3,0,2,5,3,2,3,4,5,199,0,247,0
4093,1,93,178,1,9,8,4,5,8,5,6,6,3,8,4,8,2,7,9,178,0,271,0
4093,2,96,175,2,4,10,4,4,11,5,2,6,10,8,8,6,7,5,4,175,0,271,0
4093,3,84,179,2,1,3,11,4,2,9,11,0,2,4,8,8,6,9,4,179,0,263,0
4093,4,117,164,2,13,3,7,9,9,8,10,2,10,5,10,10,7,7,5,164,0,281,0
4093,5,63,196,1,1,5,5,2,2,8,9,1,10,4,4,2,6,1,2,196,0,259,0
4093,6,61,188,1,10,2,3,3,3,3,6,3,5,5,9,2,2,1,3,188,0,249,0
4093,7,69,195,1,3,7,6,5,5,7,2,3,6,2,4,5,3,5,5,195,0,264,0
4093,8,51,200,0,4,2,4,2,3,8,0,1,5,3,4,2,4,3,6,200,0,251,0
4093,9,75,179,3,3,4,10,3,6,1,3,0,5,3,6,5,9,6,8,179,0,254,0
4093,10,83,181,2,6,8,6,5,4,13,4,4,2,2,9,6,3,6,3,181,0,264,0
4093,11,72,174,0,4,5,3,0,5,3,9,5,2,7,3,1,11,7,7,174,0,246,0
4093,12,78,180,0,2,4,11,5,5,1,7,1,5,7,8,6,6,3,7,180,0,258,0
4093,13,105,169,1,7,5,6,8,12,8,5,5,10,9,6,2,10,6,5,169,0,274,0
4093,14,96,178,1,9,5,5,7,3,5,3,2,10,10,4,5,12,8,7,178,0,274,0
4093,15,80,178,0,5,8,4,3,5,2,6,5,7,2,11,2,9,6,5,178,0,258,0
4094,0,76,173,0,7,4,6,4,10,3,2,1,4,5,9,5,6,6,4,173,0,247,0
4094,1,67,177,1,4,4,7,1,5,3,5,2,6,7,5,3,3,3,8,177,0,241,0
4094,2,66,178,0,1,4,6,4,1,4,4,3,5,5,7,5,4,6,7,178,0,241,0
4094,3,57,176,1,3,3,4,1,6,3,6,2,5,3,5,2,3,6,4,176,0,232,0
4094,4,67,176,0,5,4,5,3,2,3,9,4,6,4,3,3,4,7,5,176,0,240,0
4094,5,64,171,0,1,2,5,2,6,4,5,2,3,3,8,4,6,4,9,171,0,235,0
4094,6,87,164,0,6,7,7,3,4,4,8,4,9,4,8,4,6,9,4,164,0,250,0
4094,7,63,177,0,2,5,5,3,4,5,2,2,7,2,6,5,6,2,7,177,0,237,0
4094,8,47,191,0,3,6,1,3,1,6,3,0,5,7,3,1,4,0,4,191,0,237,0
4094,9,45,186,1,4,5,4,1,4,4,4,1,1,2,1,1,8,2,2,186,0,229,0
4094,10,75,173,0,4,3,10,3,4,3,6,1,6,5,5,8,7,6,4,173,0,247,0
4094,11,49,184,0,4,2,5,2,2,5,3,0,4,4,10,1,4,1,2,184,0,233,0
4094,12,87,176,1,4,7,5,7,8,1,6,5,7,6,4,7,8,5,6,176,0,260,0
4094,13,99,162,1,8,8,9,7,11,4,4,4,11,4,8,3,6,7,4,162,0,257,0
4094,14,71,178,1,5,8,6,4,2,3,2,3,7,7,8,4,6,1,4,178,0,246,0
4094,15,79,165,0,5,3,7,4,8,7,5,2,7,6,7,2,8,3,5,165,0,244,0
4095,0,36,185,0,0,1,2,1,4,2,8,0,1,1,5,2,2,2,5,185,0,221,0
4095,1,55,179,0,1,7,6,5,1,0,5,2,2,2,5,3,7,4,5,179,0,234,0
4095,2,71,175,0,4,7,10,3,2,4,7,8,4,4,1,8,4,0,5,175,0,246,0
4095,3,71,172,0,2,7,4,2,5,3,6,8,4,1,9,7,4,3,6,172,0,243,0
4095,4,26,183,0,0,2,4,0,3,1,4,1,0,0,3,0,3,1,4,183,0,209,0
4095,5,104,157,2,5,9,6,10,1,8,10,8,5,2,13,15,1,4,5,157,0,261,0
4095,6,127,155,2,8,7,7,19,5,8,9,7,3,15,4,17,6,5,5,155,0,282,0
4095,7,22,185,0,1,0,2,0,1,2,6,2,3,0,3,0,0,1,1,185,0,207,0
4095,8,67,179,0,1,11,5,5,2,3,5,4,1,3,3,13,4,2,5,179,0,246,0
4095,9,41,171,0,1,1,4,0,2,2,8,1,1,2,6,0,8,1,4,171,0,212,0
4095,10,20,193,0,1,1,2,0,3,0,1,0,0,0,2,0,2,3,5,193,0,213,0
4095,11,24,190,0,0,2,3,0,0,0,5,0,1,1,2,2,4,1,3,190,0,214,0
4095,12,111,153,3,9,11,10,11,2,5,6,3,4,6,7,12,8,8,6,153,0,264,0
4095,13,91,164,2,5,12,4,2,3,4,4,12,8,5,5,9,5,4,7,164,0,255,0
4095,14,50,189,1,1,7,3,4,3,1,6,2,1,6,0,7,2,3,3,189,0,239,0
4095,15,28,180,0,3,0,4,0,0,1,5,0,2,0,4,0,1,0,8,180,0,208,0

DRAM Statistics
 CHANNEL 0
 RQ ROW_BUFFER_HIT:     749518  ROW_BUFFER_MISS:    5227209
 DBUS_CONGESTED:    6370605
 WQ ROW_BUFFER_HIT:     189823  ROW_BUFFER_MISS:    2997284  FULL:          0

 CHANNEL 1
 RQ ROW_BUFFER_HIT:     746664  ROW_BUFFER_MISS:    5234865
 DBUS_CONGESTED:    6370605
 WQ ROW_BUFFER_HIT:     187821  ROW_BUFFER_MISS:    2989141  FULL:          0

 AVG_CONGESTED_CYCLE: 14
